StateEstimation/data/UCSD_OpenDSS_fixed_Andu.dss
Clear

New Circuit.SDGE_1 bus1=SDGE_1 basekv=69 pu=1 angle=0 frequency=60 MVAsc3=100 MVAsc1=100 x1r1=20 x0r0=20 BaseFreq=60
New Line.FD_EASTCAMPUS_1 bus1=16 bus2=18 Units=none Length=0.1 R1=0.00405 X1=0.01097 R0=0.02317 X0=0.01703 C1=0 C0=0 Normamps=1678.95
New Line.FD_EASTCAMPUS_2 bus1=17 bus2=19 Units=none Length=0.1 R1=0.00405 X1=0.01097 R0=0.02317 X0=0.01703 C1=0 C0=0 Normamps=1678.95
New Line.FD_EASTCAMPUS_3 bus1=21 bus2=20 Units=none Length=0.1 R1=0.00405 X1=0.01097 R0=0.02317 X0=0.01703 C1=0 C0=0 Normamps=1678.95
New Line.FD_EC38_E50 bus1=39 bus2=85 Units=none Length=0.05 R1=0.02327 X1=0.0456 R0=0.0806 X0=0.0487 C1=0 C0=0 Normamps=391.3
New Line.FD_EC37_E50 bus1=38 bus2=109 Units=none Length=0.05 R1=0.02327 X1=0.0456 R0=0.0806 X0=0.0487 C1=0 C0=0 Normamps=391.3
New Line.FD_E50_SWSTA71_1 bus1=85 bus2=88 Units=none Length=0.12 R1=0.02327 X1=0.0456 R0=0.0806 X0=0.0487 C1=0 C0=0 Normamps=391.3
New Line.FD_EC10_E50 bus1=46 bus2=86 Units=none Length=0.05 R1=0.02327 X1=0.0456 R0=0.0806 X0=0.0487 C1=0 C0=0 Normamps=391.3
New Line.FD_E50_SWSTA71_2 bus1=86 bus2=89 Units=none Length=0.12 R1=0.02327 X1=0.0456 R0=0.0806 X0=0.0487 C1=0 C0=0 Normamps=391.3
New Line.95 bus1=EAST_CAMPUS_1 bus2=97 Units=none Length=0.03 R1=0.0055 X1=0.0041 R0=0.06336 X0=0.0111 C1=0 C0=0 Normamps=1760
New Line.FD_XFMR283 bus1=104 bus2=99 Units=none Length=0.02 R1=0.02327 X1=0.0456 R0=0.0806 X0=0.0487 C1=0 C0=0 Normamps=334.4
New Line.FD_E50_E53_3 bus1=85 bus2=112 Units=none Length=1.08 R1=0.02327 X1=0.0456 R0=0.0806 X0=0.0487 C1=0 C0=0 Normamps=391.3
New Line.FD_E50_E53_4 bus1=86 bus2=113 Units=none Length=1.08 R1=0.02327 X1=0.0456 R0=0.0806 X0=0.0487 C1=0 C0=0 Normamps=391.3
New Line.FD_E50_E53_5 bus1=109 bus2=111 Units=none Length=1.08 R1=0.02327 X1=0.0456 R0=0.0806 X0=0.0487 C1=0 C0=0 Normamps=391.3
New Line.FD_EC13_E50 bus1=49 bus2=115 Units=none Length=0.05 R1=0.02327 X1=0.0456 R0=0.0806 X0=0.0487 C1=0 C0=0 Normamps=391.3
New Line.FD_E50_E53_1 bus1=115 bus2=117 Units=none Length=1.08 R1=0.02327 X1=0.0456 R0=0.0806 X0=0.0487 C1=0 C0=0 Normamps=391.3
New Line.FD_EC6_E50 bus1=42 bus2=119 Units=none Length=0.05 R1=0.02327 X1=0.0456 R0=0.0806 X0=0.0487 C1=0 C0=0 Normamps=391.3
New Line.FD_E50_E53_6 bus1=119 bus2=121 Units=none Length=1.08 R1=0.02327 X1=0.0456 R0=0.0806 X0=0.0487 C1=0 C0=0 Normamps=391.3
New Line.FD_EC9_E50 bus1=51 bus2=123 Units=none Length=0.05 R1=0.02327 X1=0.0456 R0=0.0806 X0=0.0487 C1=0 C0=0 Normamps=391.3
New Line.FD_E50_E53_2 bus1=123 bus2=125 Units=none Length=1.08 R1=0.02327 X1=0.0456 R0=0.0806 X0=0.0487 C1=0 C0=0 Normamps=391.3
New Line.FD_E53_SWSTA51_1 bus1=91 bus2=112 Units=none Length=0.09 R1=0.02327 X1=0.0456 R0=0.0806 X0=0.0487 C1=0 C0=0 Normamps=391.3
New Line.FD_E53_SWSTA51_2 bus1=90 bus2=113 Units=none Length=0.09 R1=0.02327 X1=0.0456 R0=0.0806 X0=0.0487 C1=0 C0=0 Normamps=391.3
New Line.FD_E53_E531_2 bus1=111 bus2=144 Units=none Length=0.528 R1=0.02327 X1=0.0456 R0=0.0806 X0=0.0487 C1=0 C0=0 Normamps=391.3
New Line.FD_E53_E531_1 bus1=117 bus2=143 Units=none Length=0.528 R1=0.02327 X1=0.0456 R0=0.0806 X0=0.0487 C1=0 C0=0 Normamps=391.3
New Line.FD_E53_E54_1 bus1=125 bus2=149 Units=none Length=0.7 R1=0.02327 X1=0.0456 R0=0.0806 X0=0.0487 C1=0 C0=0 Normamps=391.3
New Line.FD_E53_E54_2 bus1=112 bus2=150 Units=none Length=0.7 R1=0.02327 X1=0.0456 R0=0.0806 X0=0.0487 C1=0 C0=0 Normamps=391.3
New Line.FD_E53_E54_3 bus1=113 bus2=151 Units=none Length=0.7 R1=0.02327 X1=0.0456 R0=0.0806 X0=0.0487 C1=0 C0=0 Normamps=391.3
New Line.FD_E53_E54_4 bus1=121 bus2=152 Units=none Length=0.7 R1=0.02327 X1=0.0456 R0=0.0806 X0=0.0487 C1=0 C0=0 Normamps=391.3
New Line.FD_THORTON_ST_LIGH bus1=THORTON_ST_LIGHT bus2=150 Units=none Length=0.15 R1=0.02327 X1=0.0456 R0=0.0806 X0=0.0487 C1=0 C0=0 Normamps=391.3
New Line.FD_E54_E55_1 bus1=149 bus2=156 Units=none Length=0.41 R1=0.02327 X1=0.0456 R0=0.0806 X0=0.0487 C1=0 C0=0 Normamps=391.3
New Line.FD_E54_E55_2 bus1=150 bus2=157 Units=none Length=0.41 R1=0.02327 X1=0.0456 R0=0.0806 X0=0.0487 C1=0 C0=0 Normamps=391.3
New Line.FD_E54_E55_3 bus1=151 bus2=158 Units=none Length=0.41 R1=0.02327 X1=0.0456 R0=0.0806 X0=0.0487 C1=0 C0=0 Normamps=391.3
New Line.FD_E54_E55_4 bus1=152 bus2=159 Units=none Length=0.41 R1=0.02327 X1=0.0456 R0=0.0806 X0=0.0487 C1=0 C0=0 Normamps=391.3
New Line.FD_E55_E58_2 bus1=159 bus2=164 Units=none Length=1.23 R1=0.02327 X1=0.0456 R0=0.0806 X0=0.0487 C1=0 C0=0 Normamps=391.3
New Line.FD_E55_E58_3 bus1=156 bus2=165 Units=none Length=1.23 R1=0.02327 X1=0.0456 R0=0.0806 X0=0.0487 C1=0 C0=0 Normamps=391.3
New Line.FD_T049 bus1=3258 bus2=172 Units=none Length=0.47 R1=0.02327 X1=0.0456 R0=0.0806 X0=0.0487 C1=0 C0=0 Normamps=391.3
New Line.FD_T51 bus1=3262 bus2=173 Units=none Length=0.45 R1=0.02327 X1=0.0456 R0=0.0806 X0=0.0487 C1=0 C0=0 Normamps=391.3
New Line.FD_SWSTA96_1 bus1=165 bus2=3283 Units=none Length=0.03 R1=0.02327 X1=0.0456 R0=0.0806 X0=0.0487 C1=0 C0=0 Normamps=391.3
New Line.FD_SWSTA96_2 bus1=164 bus2=3282 Units=none Length=0.03 R1=0.02327 X1=0.0456 R0=0.0806 X0=0.0487 C1=0 C0=0 Normamps=391.3
New Line.FD_T53 bus1=3260 bus2=180 Units=none Length=0.43 R1=0.02327 X1=0.0456 R0=0.0806 X0=0.0487 C1=0 C0=0 Normamps=391.3
New Line.FD_E55_SWST76_2 bus1=232 bus2=157 Units=none Length=0.12 R1=0.02327 X1=0.0456 R0=0.0806 X0=0.0487 C1=0 C0=0 Normamps=391.3
New Line.FD_E55_SWST76_1 bus1=230 bus2=158 Units=none Length=0.12 R1=0.02327 X1=0.0456 R0=0.0806 X0=0.0487 C1=0 C0=0 Normamps=391.3
New Line.FD_SHILEY_EYE bus1=214 bus2=218 Units=none Length=0.37 R1=0.02327 X1=0.0456 R0=0.0806 X0=0.0487 C1=0 C0=0 Normamps=391.3
New Line.FD_E55_SWST80_1 bus1=234 bus2=157 Units=none Length=0.1 R1=0.02327 X1=0.0456 R0=0.0806 X0=0.0487 C1=0 C0=0 Normamps=391.3
New Line.FD_E55_SWST80_2 bus1=236 bus2=158 Units=none Length=0.1 R1=0.02327 X1=0.0456 R0=0.0806 X0=0.0487 C1=0 C0=0 Normamps=391.3
New Line.FD_XFMR307 bus1=243 bus2=221 Units=none Length=0.04 R1=0.02327 X1=0.0456 R0=0.0806 X0=0.0487 C1=0 C0=0 Normamps=391.3
New Line.FD_XFMR308 bus1=242 bus2=223 Units=none Length=0.015 R1=0.02327 X1=0.0456 R0=0.0806 X0=0.0487 C1=0 C0=0 Normamps=391.3
New Line.FD_GEN_DIESEIL_1 bus1=259 bus2=GEN_DIESEL_1 Units=none Length=0.08 R1=0.08579 X1=0.0566 R0=0.14312 X0=0.0852 C1=0 C0=0 Normamps=177.45
New Line.FD_GEN_DIESEIL_2 bus1=260 bus2=GEN_DIESEL_2 Units=none Length=0.08 R1=0.08579 X1=0.0566 R0=0.14312 X0=0.0852 C1=0 C0=0 Normamps=177.45
New Line.FD_E531_ECCP_ME bus1=143 bus2=273 Units=none Length=0.04 R1=0.02327 X1=0.0456 R0=0.0806 X0=0.0487 C1=0 C0=0 Normamps=391.3
New Line.FD_E531_ECCP_MW bus1=144 bus2=272 Units=none Length=0.04 R1=0.02327 X1=0.0456 R0=0.0806 X0=0.0487 C1=0 C0=0 Normamps=391.3
New Line.FD_XFMR_335 bus1=277 bus2=279 Units=none Length=0.01 R1=0.02327 X1=0.0456 R0=0.0806 X0=0.0487 C1=0 C0=0 Normamps=391.3
New Line.FD_XFMR_336 bus1=278 bus2=280 Units=none Length=0.045 R1=0.02327 X1=0.0456 R0=0.0806 X0=0.0487 C1=0 C0=0 Normamps=391.3
New Line.FD_ECCP_E3_1 bus1=292 bus2=288 Units=none Length=0.59 R1=0.02327 X1=0.0456 R0=0.0806 X0=0.0487 C1=0 C0=0 Normamps=391.3
New Line.FD_ECCP_E3_2 bus1=291 bus2=290 Units=none Length=0.59 R1=0.02327 X1=0.0456 R0=0.0806 X0=0.0487 C1=0 C0=0 Normamps=391.3
New Line.FD_XFMR310 bus1=225 bus2=308 Units=none Length=0.05 R1=0.02327 X1=0.0456 R0=0.0806 X0=0.0487 C1=0 C0=0 Normamps=391.3
New Line.FD_XFMR311 bus1=227 bus2=309 Units=none Length=0.05 R1=0.02327 X1=0.0456 R0=0.0806 X0=0.0487 C1=0 C0=0 Normamps=391.3
New Line.FD_SWSTA78_E3 bus1=314 bus2=291 Units=none Length=0.82 R1=0.02327 X1=0.0456 R0=0.0806 X0=0.0487 C1=0 C0=0 Normamps=391.3
New Line.FD_SWSTA79_E3 bus1=315 bus2=292 Units=none Length=0.82 R1=0.02327 X1=0.0456 R0=0.0806 X0=0.0487 C1=0 C0=0 Normamps=391.3
New Line.FD_TIE_78_79 bus1=321 bus2=322 Units=none Length=0.005 R1=0.02327 X1=0.0456 R0=0.0806 X0=0.0487 C1=0 C0=0 Normamps=391.3
New Line.FD_SHILEY_EMERG bus1=310 bus2=229 Units=none Length=0.05 R1=0.02327 X1=0.0456 R0=0.0806 X0=0.0487 C1=0 C0=0 Normamps=391.3
New Line.FD_SWSTA77_E3_1 bus1=317 bus2=291 Units=none Length=0.03 R1=0.02327 X1=0.0456 R0=0.0806 X0=0.0487 C1=0 C0=0 Normamps=391.3
New Line.FD_SWSTA77_E3_2 bus1=316 bus2=292 Units=none Length=0.03 R1=0.02327 X1=0.0456 R0=0.0806 X0=0.0487 C1=0 C0=0 Normamps=391.3
New Line.FD_EC4_E61 bus1=40 bus2=341 Units=none Length=0.36 R1=0.00582 X1=0.0114 R0=0.02015 X0=0.01218 C1=0 C0=0 Normamps=1565.2
New Line.FD_EC19_E61 bus1=41 bus2=340 Units=none Length=0.36 R1=0.00582 X1=0.0114 R0=0.02015 X0=0.01218 C1=0 C0=0 Normamps=1565.2
New Line.FD_EC___E62 bus1=3090 bus2=342 Units=none Length=0.36 R1=0.02327 X1=0.0456 R0=0.0806 X0=0.0487 C1=0 C0=0 Normamps=391.3
New Line.FD_E61_E64_1 bus1=340 bus2=347 Units=none Length=1.23 R1=0.00582 X1=0.0114 R0=0.02015 X0=0.01218 C1=0 C0=0 Normamps=1565.2
New Line.FD_E61_E64_2 bus1=341 bus2=349 Units=none Length=1.23 R1=0.00582 X1=0.0114 R0=0.02015 X0=0.01218 C1=0 C0=0 Normamps=1565.2
New Line.FD_E61_E64_3 bus1=342 bus2=348 Units=none Length=1.23 R1=0.02327 X1=0.0456 R0=0.0806 X0=0.0487 C1=0 C0=0 Normamps=391.3
New Line.FD_E64_E67_1 bus1=347 bus2=350 Units=none Length=1.27 R1=0.00582 X1=0.0114 R0=0.02015 X0=0.01218 C1=0 C0=0 Normamps=1565.2
New Line.FD_E64_E67_2 bus1=349 bus2=353 Units=none Length=1.27 R1=0.00582 X1=0.0114 R0=0.02015 X0=0.01218 C1=0 C0=0 Normamps=1565.2
New Line.FD_E64_E67_3 bus1=348 bus2=351 Units=none Length=1.27 R1=0.02327 X1=0.0456 R0=0.0806 X0=0.0487 C1=0 C0=0 Normamps=391.3
New Line.FD_E67_E611_1 bus1=350 bus2=361 Units=none Length=1.58 R1=0.00582 X1=0.0114 R0=0.02015 X0=0.01218 C1=0 C0=0 Normamps=1565.2
New Line.FD_E67_E611_2 bus1=353 bus2=363 Units=none Length=1.58 R1=0.00582 X1=0.0114 R0=0.02015 X0=0.01218 C1=0 C0=0 Normamps=1565.2
New Line.FD_E67_E611_3 bus1=351 bus2=362 Units=none Length=1.58 R1=0.02327 X1=0.0456 R0=0.0806 X0=0.0487 C1=0 C0=0 Normamps=391.3
New Line.FD_E611_E616_1 bus1=366 bus2=361 Units=none Length=1.93 R1=0.00582 X1=0.0114 R0=0.02015 X0=0.01218 C1=0 C0=0 Normamps=1565.2
New Line.FD_E611_E616_2 bus1=364 bus2=363 Units=none Length=1.93 R1=0.00582 X1=0.0114 R0=0.02015 X0=0.01218 C1=0 C0=0 Normamps=1565.2
New Line.FD_E611_E616_3 bus1=365 bus2=362 Units=none Length=1.93 R1=0.02327 X1=0.0456 R0=0.0806 X0=0.0487 C1=0 C0=0 Normamps=391.3
New Line.FD_E616_E13_1 bus1=371 bus2=366 Units=none Length=0.23 R1=0.00582 X1=0.0114 R0=0.02015 X0=0.01218 C1=0 C0=0 Normamps=1565.2
New Line.FD_E616_E13_2 bus1=372 bus2=364 Units=none Length=0.23 R1=0.00582 X1=0.0114 R0=0.02015 X0=0.01218 C1=0 C0=0 Normamps=1565.2
New Line.FD_E616_E13_3 bus1=373 bus2=365 Units=none Length=0.23 R1=0.02327 X1=0.0456 R0=0.0806 X0=0.0487 C1=0 C0=0 Normamps=391.3
New Line.FD_EC7_E75 bus1=52 bus2=53 Units=none Length=1.475 R1=0.02327 X1=0.0456 R0=0.0806 X0=0.0487 C1=0 C0=0 Normamps=391.3
New Line.FD_EC35_E75 bus1=36 bus2=54 Units=none Length=1.475 R1=0.02327 X1=0.0456 R0=0.0806 X0=0.0487 C1=0 C0=0 Normamps=391.3
New Line.FD_EC11_E75 bus1=47 bus2=55 Units=none Length=1.475 R1=0.00776 X1=0.0152 R0=0.02687 X0=0.01623 C1=0 C0=0 Normamps=1173.9
New Line.FD_EC8_E75 bus1=44 bus2=56 Units=none Length=1.475 R1=0.00776 X1=0.0152 R0=0.02687 X0=0.01623 C1=0 C0=0 Normamps=1173.9
New Line.FD_E75_E76_1 bus1=60 bus2=53 Units=none Length=0.625 R1=0.02327 X1=0.0456 R0=0.0806 X0=0.0487 C1=0 C0=0 Normamps=391.3
New Line.FD_E75_E76_2 bus1=59 bus2=54 Units=none Length=0.625 R1=0.02327 X1=0.0456 R0=0.0806 X0=0.0487 C1=0 C0=0 Normamps=391.3
New Line.FD_E75_E76_3 bus1=58 bus2=55 Units=none Length=0.625 R1=0.00776 X1=0.0152 R0=0.02687 X0=0.01623 C1=0 C0=0 Normamps=1173.9
New Line.FD_E75_SWSTA19_1 bus1=394 bus2=53 Units=none Length=0.625 R1=0.02327 X1=0.0456 R0=0.0806 X0=0.0487 C1=0 C0=0 Normamps=391.3
New Line.FD_E75_SWSTA19_2 bus1=395 bus2=54 Units=none Length=0.625 R1=0.02327 X1=0.0456 R0=0.0806 X0=0.0487 C1=0 C0=0 Normamps=391.3
New Line.FD_E74_E7B bus1=402 bus2=56 Units=none Length=0.792 R1=0.00776 X1=0.0152 R0=0.02687 X0=0.01623 C1=0 C0=0 Normamps=1173.9
New Line.FD_EC33_E7B bus1=403 bus2=34 Units=none Length=2.376 R1=0.00776 X1=0.0152 R0=0.02687 X0=0.01623 C1=0 C0=0 Normamps=1173.9
New Line.FD_E7B_E7C_1 bus1=405 bus2=402 Units=none Length=0.528 R1=0.00776 X1=0.0152 R0=0.02687 X0=0.01623 C1=0 C0=0 Normamps=1173.9
New Line.FD_E7B_E7C_2 bus1=404 bus2=403 Units=none Length=0.528 R1=0.00776 X1=0.0152 R0=0.02687 X0=0.01623 C1=0 C0=0 Normamps=1173.9
New Line.FD_E76_E77A_1 bus1=63 bus2=60 Units=none Length=0.04 R1=0.02327 X1=0.0456 R0=0.0806 X0=0.0487 C1=0 C0=0 Normamps=391.3
New Line.FD_E76_E77A_2 bus1=62 bus2=59 Units=none Length=0.04 R1=0.02327 X1=0.0456 R0=0.0806 X0=0.0487 C1=0 C0=0 Normamps=391.3
New Line.FD_E76_E77A_3 bus1=61 bus2=58 Units=none Length=0.04 R1=0.00776 X1=0.0152 R0=0.02687 X0=0.01623 C1=0 C0=0 Normamps=1173.9
New Line.FD_E77A_E79_1 bus1=66 bus2=63 Units=none Length=1.01 R1=0.02327 X1=0.0456 R0=0.0806 X0=0.0487 C1=0 C0=0 Normamps=391.3
New Line.FD_E77A_E79_2 bus1=65 bus2=62 Units=none Length=1.01 R1=0.02327 X1=0.0456 R0=0.0806 X0=0.0487 C1=0 C0=0 Normamps=391.3
New Line.FD_E77A_E79_3 bus1=516 bus2=61 Units=none Length=1.01 R1=0.00776 X1=0.0152 R0=0.02687 X0=0.01623 C1=0 C0=0 Normamps=1173.9
New Line.FD_E77A_E762_1 bus1=423 bus2=63 Units=none Length=0.625 R1=0.02327 X1=0.0456 R0=0.0806 X0=0.0487 C1=0 C0=0 Normamps=391.3
New Line.FD_E77A_E762_2 bus1=424 bus2=62 Units=none Length=0.625 R1=0.02327 X1=0.0456 R0=0.0806 X0=0.0487 C1=0 C0=0 Normamps=391.3
New Line.FD_E762_SWSTA20_2 bus1=397 bus2=423 Units=none Length=0.085 R1=0.02327 X1=0.0456 R0=0.0806 X0=0.0487 C1=0 C0=0 Normamps=391.3
New Line.FD_E762_SWSTA20_1 bus1=396 bus2=424 Units=none Length=0.085 R1=0.02327 X1=0.0456 R0=0.0806 X0=0.0487 C1=0 C0=0 Normamps=391.3
New Line.FD_XFMR171 bus1=437 bus2=436 Units=none Length=0.03 R1=0.02327 X1=0.0456 R0=0.0806 X0=0.0487 C1=0 C0=0 Normamps=334.4
New Line.FD_E762_E763_1 bus1=426 bus2=423 Units=none Length=0.625 R1=0.02327 X1=0.0456 R0=0.0806 X0=0.0487 C1=0 C0=0 Normamps=391.3
New Line.FD_E762_E763_2 bus1=425 bus2=424 Units=none Length=0.625 R1=0.02327 X1=0.0456 R0=0.0806 X0=0.0487 C1=0 C0=0 Normamps=391.3
New Line.FD_XFMR241 bus1=438 bus2=439 Units=none Length=0.03 R1=0.02327 X1=0.0456 R0=0.0806 X0=0.0487 C1=0 C0=0 Normamps=334.4
New Line.FD_E763_SWSTAMH_1 bus1=399 bus2=426 Units=none Length=0.05 R1=0.02327 X1=0.0456 R0=0.0806 X0=0.0487 C1=0 C0=0 Normamps=391.3
New Line.FD_E763_SWSTAMH_2 bus1=398 bus2=425 Units=none Length=0.05 R1=0.02327 X1=0.0456 R0=0.0806 X0=0.0487 C1=0 C0=0 Normamps=391.3
New Line.FD_XFMR172 bus1=440 bus2=441 Units=none Length=0.01 R1=0.02327 X1=0.0456 R0=0.0806 X0=0.0487 C1=0 C0=0 Normamps=334.4
New Line.FD_E763_GREENH_1 bus1=401 bus2=426 Units=none Length=0.48 R1=0.02327 X1=0.0456 R0=0.0806 X0=0.0487 C1=0 C0=0 Normamps=391.3
New Line.FD_E763_GREENH_2 bus1=400 bus2=425 Units=none Length=0.48 R1=0.02327 X1=0.0456 R0=0.0806 X0=0.0487 C1=0 C0=0 Normamps=391.3
New Line.FD_E79_SWSTA13_1 bus1=407 bus2=66 Units=none Length=0.025 R1=0.02327 X1=0.0456 R0=0.0806 X0=0.0487 C1=0 C0=0 Normamps=391.3
New Line.FD_E79_SWSTA13_2 bus1=406 bus2=65 Units=none Length=0.025 R1=0.02327 X1=0.0456 R0=0.0806 X0=0.0487 C1=0 C0=0 Normamps=391.3
New Line.FD_E79_SWSTA13_3 bus1=478 bus2=442 Units=none Length=0.15 R1=0.02327 X1=0.0456 R0=0.0806 X0=0.0487 C1=0 C0=0 Normamps=391.3
New Line.FD_CANYON_VIEW bus1=3237 bus2=CANYON_VIEW_FACILITY Units=none Length=0.18 R1=0.02327 X1=0.0456 R0=0.0806 X0=0.0487 C1=0 C0=0 Normamps=391.3
New Line.FD_STA_S_168 bus1=483 bus2=3243 Units=none Length=0.47 R1=0.02327 X1=0.0456 R0=0.0806 X0=0.0487 C1=0 C0=0 Normamps=391.3
New Line.FD_STA_S_167 bus1=492 bus2=483 Units=none Length=0.2 R1=0.02327 X1=0.0456 R0=0.0806 X0=0.0487 C1=0 C0=0 Normamps=391.3
New Line.FD_STA_S_166 bus1=484 bus2=492 Units=none Length=0.42 R1=0.02327 X1=0.0456 R0=0.0806 X0=0.0487 C1=0 C0=0 Normamps=391.3
New Line.FD_STA_S_169 bus1=493 bus2=484 Units=none Length=0.54 R1=0.02327 X1=0.0456 R0=0.0806 X0=0.0487 C1=0 C0=0 Normamps=391.3
New Line.FD_STA_S_170 bus1=490 bus2=493 Units=none Length=0.5 R1=0.02327 X1=0.0456 R0=0.0806 X0=0.0487 C1=0 C0=0 Normamps=391.3
New Line.FD_E79_E710_1 bus1=67 bus2=516 Units=none Length=0.4 R1=0.00776 X1=0.0152 R0=0.02687 X0=0.01623 C1=0 C0=0 Normamps=1173.9
New Line.FD_E79_E710_2 bus1=70 bus2=521 Units=none Length=0.4 R1=0.02327 X1=0.0456 R0=0.0806 X0=0.0487 C1=0 C0=0 Normamps=391.3
New Line.FD_E79_E710_3 bus1=71 bus2=522 Units=none Length=0.4 R1=0.02327 X1=0.0456 R0=0.0806 X0=0.0487 C1=0 C0=0 Normamps=391.3
New Line.FD_NC_TIEA_C bus1=533 bus2=NORT_CAMPUS_C Units=none Length=0.03 R1=0.0055 X1=0.0041 R0=0.06336 X0=0.0111 C1=0 C0=0 Normamps=1760
New Line.FD_E7C_NCMAINC bus1=546 bus2=404 Units=none Length=0.38 R1=0.00776 X1=0.0152 R0=0.02687 X0=0.01623 C1=0 C0=0 Normamps=1173.9
New Line.FD_E7C_NCMAINB bus1=547 bus2=405 Units=none Length=0.38 R1=0.00776 X1=0.0152 R0=0.02687 X0=0.01623 C1=0 C0=0 Normamps=1173.9
New Line.FD_E10_NCMAINA bus1=548 bus2=67 Units=none Length=0.61 R1=0.00776 X1=0.0152 R0=0.02687 X0=0.01623 C1=0 C0=0 Normamps=1173.9
New Line.FD_NC3A_E7C bus1=82 bus2=579 Units=none Length=0.4 R1=0.02327 X1=0.0456 R0=0.0806 X0=0.0487 C1=0 C0=0 Normamps=391.3
New Line.FD_NC3B_E7C bus1=76 bus2=581 Units=none Length=0.38 R1=0.02327 X1=0.0456 R0=0.0806 X0=0.0487 C1=0 C0=0 Normamps=391.3
New Line.FD_NC1A_E7C bus1=80 bus2=583 Units=none Length=0.4 R1=0.02327 X1=0.0456 R0=0.0806 X0=0.0487 C1=0 C0=0 Normamps=391.3
New Line.FD_NC1B_E7C bus1=74 bus2=585 Units=none Length=0.39 R1=0.02327 X1=0.0456 R0=0.0806 X0=0.0487 C1=0 C0=0 Normamps=391.3
New Line.FD_E7C_E710_1 bus1=587 bus2=579 Units=none Length=0.08 R1=0.02327 X1=0.0456 R0=0.0806 X0=0.0487 C1=0 C0=0 Normamps=391.3
New Line.FD_E7C_E710_2 bus1=589 bus2=581 Units=none Length=0.08 R1=0.02327 X1=0.0456 R0=0.0806 X0=0.0487 C1=0 C0=0 Normamps=391.3
New Line.FD_E7C_E710_3 bus1=590 bus2=583 Units=none Length=0.08 R1=0.02327 X1=0.0456 R0=0.0806 X0=0.0487 C1=0 C0=0 Normamps=391.3
New Line.FD_E7C_E710_4 bus1=591 bus2=585 Units=none Length=0.08 R1=0.02327 X1=0.0456 R0=0.0806 X0=0.0487 C1=0 C0=0 Normamps=391.3
New Line.FD_E710_E7111_1 bus1=596 bus2=587 Units=none Length=0.12 R1=0.02327 X1=0.0456 R0=0.0806 X0=0.0487 C1=0 C0=0 Normamps=391.3
New Line.FD_E710_E7111_2 bus1=597 bus2=589 Units=none Length=0.12 R1=0.02327 X1=0.0456 R0=0.0806 X0=0.0487 C1=0 C0=0 Normamps=391.3
New Line.FD_T_067 bus1=602 bus2=596 Units=none Length=0.05 R1=0.02327 X1=0.0456 R0=0.0806 X0=0.0487 C1=0 C0=0 Normamps=391.3
New Line.FD_T_68 bus1=603 bus2=597 Units=none Length=0.05 R1=0.02327 X1=0.0456 R0=0.0806 X0=0.0487 C1=0 C0=0 Normamps=391.3
New Line.FD_T_76 bus1=605 bus2=597 Units=none Length=0.04 R1=0.02327 X1=0.0456 R0=0.0806 X0=0.0487 C1=0 C0=0 Normamps=391.3
New Line.FD_T_75 bus1=604 bus2=596 Units=none Length=0.04 R1=0.02327 X1=0.0456 R0=0.0806 X0=0.0487 C1=0 C0=0 Normamps=391.3
New Line.FD_E710_E711_1 bus1=627 bus2=70 Units=none Length=0.2 R1=0.02327 X1=0.0456 R0=0.0806 X0=0.0487 C1=0 C0=0 Normamps=391.3
New Line.FD_E710_E711_2 bus1=628 bus2=71 Units=none Length=0.2 R1=0.02327 X1=0.0456 R0=0.0806 X0=0.0487 C1=0 C0=0 Normamps=391.3
New Line.FD_NC6B_E711 bus1=627 bus2=79 Units=none Length=0.15 R1=0.02327 X1=0.0456 R0=0.0806 X0=0.0487 C1=0 C0=0 Normamps=391.3
New Line.FD_NC2C_E711 bus1=628 bus2=64 Units=none Length=0.15 R1=0.02327 X1=0.0456 R0=0.0806 X0=0.0487 C1=0 C0=0 Normamps=391.3
New Line.FD_NC3A_E711 bus1=633 bus2=82 Units=none Length=0.15 R1=0.02327 X1=0.0456 R0=0.0806 X0=0.0487 C1=0 C0=0 Normamps=391.3
New Line.FD_NC3B_E711 bus1=634 bus2=76 Units=none Length=0.12 R1=0.02327 X1=0.0456 R0=0.0806 X0=0.0487 C1=0 C0=0 Normamps=391.3
New Line.FD_SWSTA94_2 bus1=606 bus2=634 Units=none Length=0.12 R1=0.02327 X1=0.0456 R0=0.0806 X0=0.0487 C1=0 C0=0 Normamps=391.3
New Line.FD_SWSTA94_1 bus1=607 bus2=633 Units=none Length=0.12 R1=0.02327 X1=0.0456 R0=0.0806 X0=0.0487 C1=0 C0=0 Normamps=391.3
New Line.FD_XFMR326 bus1=652 bus2=651 Units=none Length=0.1 R1=0.02327 X1=0.0456 R0=0.0806 X0=0.0487 C1=0 C0=0 Normamps=391.3
New Line.FD_E711_E712_1 bus1=653 bus2=627 Units=none Length=0.25 R1=0.02327 X1=0.0456 R0=0.0806 X0=0.0487 C1=0 C0=0 Normamps=391.3
New Line.FD_E711_E712_2 bus1=654 bus2=628 Units=none Length=0.25 R1=0.02327 X1=0.0456 R0=0.0806 X0=0.0487 C1=0 C0=0 Normamps=391.3
New Line.FD_E711_E712_3 bus1=655 bus2=633 Units=none Length=0.25 R1=0.02327 X1=0.0456 R0=0.0806 X0=0.0487 C1=0 C0=0 Normamps=391.3
New Line.FD_E711_E712_4 bus1=657 bus2=634 Units=none Length=0.25 R1=0.02327 X1=0.0456 R0=0.0806 X0=0.0487 C1=0 C0=0 Normamps=391.3
New Line.FD_NC2A_E712 bus1=656 bus2=81 Units=none Length=0.55 R1=0.02327 X1=0.0456 R0=0.0806 X0=0.0487 C1=0 C0=0 Normamps=391.3
New Line.FD_NC2B_E712 bus1=658 bus2=75 Units=none Length=0.55 R1=0.02327 X1=0.0456 R0=0.0806 X0=0.0487 C1=0 C0=0 Normamps=391.3
New Line.FD_E712_E7122_1 bus1=666 bus2=653 Units=none Length=0.38 R1=0.02327 X1=0.0456 R0=0.0806 X0=0.0487 C1=0 C0=0 Normamps=391.3
New Line.FD_E712_E7122_2 bus1=667 bus2=654 Units=none Length=0.38 R1=0.02327 X1=0.0456 R0=0.0806 X0=0.0487 C1=0 C0=0 Normamps=391.3
New Line.FD_E7122_SS91_1 bus1=673 bus2=666 Units=none Length=0.22 R1=0.02327 X1=0.0456 R0=0.0806 X0=0.0487 C1=0 C0=0 Normamps=391.3
New Line.FD_E7122_SS91_2 bus1=674 bus2=667 Units=none Length=0.22 R1=0.02327 X1=0.0456 R0=0.0806 X0=0.0487 C1=0 C0=0 Normamps=391.3
New Line.FD_XFMR323 bus1=679 bus2=677 Units=none Length=0.02 R1=0.02327 X1=0.0456 R0=0.0806 X0=0.0487 C1=0 C0=0 Normamps=391.3
New Line.FD_XFMR322 bus1=680 bus2=678 Units=none Length=0.03 R1=0.02327 X1=0.0456 R0=0.0806 X0=0.0487 C1=0 C0=0 Normamps=391.3
New Line.FD_XFMR321 bus1=681 bus2=682 Units=none Length=0.04 R1=0.02327 X1=0.0456 R0=0.0806 X0=0.0487 C1=0 C0=0 Normamps=391.3
New Line.FD_E7122_SS82_1 bus1=676 bus2=666 Units=none Length=0.41 R1=0.02327 X1=0.0456 R0=0.0806 X0=0.0487 C1=0 C0=0 Normamps=391.3
New Line.FD_E7122_SS82_2 bus1=675 bus2=667 Units=none Length=0.41 R1=0.02327 X1=0.0456 R0=0.0806 X0=0.0487 C1=0 C0=0 Normamps=391.3
New Line.FD_XFMR324 bus1=683 bus2=684 Units=none Length=0.48 R1=0.02327 X1=0.0456 R0=0.0806 X0=0.0487 C1=0 C0=0 Normamps=391.3
New Line.FD_XFMR325 bus1=685 bus2=686 Units=none Length=0.48 R1=0.02327 X1=0.0456 R0=0.0806 X0=0.0487 C1=0 C0=0 Normamps=391.3
New Line.FD_XFMR298 bus1=687 bus2=688 Units=none Length=0.25 R1=0.02327 X1=0.0456 R0=0.0806 X0=0.0487 C1=0 C0=0 Normamps=391.3
New Line.FD_XFMR297 bus1=689 bus2=690 Units=none Length=0.25 R1=0.02327 X1=0.0456 R0=0.0806 X0=0.0487 C1=0 C0=0 Normamps=391.3
New Line.FD_NC4B_E712 bus1=659 bus2=77 Units=none Length=0.55 R1=0.02327 X1=0.0456 R0=0.0806 X0=0.0487 C1=0 C0=0 Normamps=391.3
New Line.FD_NC4A_E712 bus1=660 bus2=83 Units=none Length=0.55 R1=0.02327 X1=0.0456 R0=0.0806 X0=0.0487 C1=0 C0=0 Normamps=391.3
New Line.FD_E712_E713_1 bus1=743 bus2=655 Units=none Length=0.375 R1=0.02327 X1=0.0456 R0=0.0806 X0=0.0487 C1=0 C0=0 Normamps=391.3
New Line.FD_E712_E713_2 bus1=744 bus2=656 Units=none Length=0.375 R1=0.02327 X1=0.0456 R0=0.0806 X0=0.0487 C1=0 C0=0 Normamps=391.3
New Line.FD_E712_E713_3 bus1=745 bus2=657 Units=none Length=0.375 R1=0.02327 X1=0.0456 R0=0.0806 X0=0.0487 C1=0 C0=0 Normamps=391.3
New Line.FD_E712_E713_4 bus1=746 bus2=658 Units=none Length=0.375 R1=0.02327 X1=0.0456 R0=0.0806 X0=0.0487 C1=0 C0=0 Normamps=391.3
New Line.FD_E712_E713_5 bus1=747 bus2=659 Units=none Length=0.375 R1=0.02327 X1=0.0456 R0=0.0806 X0=0.0487 C1=0 C0=0 Normamps=391.3
New Line.FD_E712_E713_6 bus1=748 bus2=660 Units=none Length=0.375 R1=0.02327 X1=0.0456 R0=0.0806 X0=0.0487 C1=0 C0=0 Normamps=391.3
New Line.FD_T_69 bus1=655 bus2=762 Units=none Length=0.3 R1=0.02327 X1=0.0456 R0=0.0806 X0=0.0487 C1=0 C0=0 Normamps=391.3
New Line.FD_T_70 bus1=657 bus2=763 Units=none Length=0.3 R1=0.02327 X1=0.0456 R0=0.0806 X0=0.0487 C1=0 C0=0 Normamps=391.3
New Line.FD_E713_E714_1 bus1=749 bus2=743 Units=none Length=0.365 R1=0.02327 X1=0.0456 R0=0.0806 X0=0.0487 C1=0 C0=0 Normamps=391.3
New Line.FD_E713_E714_2 bus1=750 bus2=744 Units=none Length=0.365 R1=0.02327 X1=0.0456 R0=0.0806 X0=0.0487 C1=0 C0=0 Normamps=391.3
New Line.FD_E713_E714_3 bus1=751 bus2=745 Units=none Length=0.365 R1=0.02327 X1=0.0456 R0=0.0806 X0=0.0487 C1=0 C0=0 Normamps=391.3
New Line.FD_E713_E714_4 bus1=752 bus2=746 Units=none Length=0.365 R1=0.02327 X1=0.0456 R0=0.0806 X0=0.0487 C1=0 C0=0 Normamps=391.3
New Line.FD_E713_E714_5 bus1=753 bus2=747 Units=none Length=0.365 R1=0.02327 X1=0.0456 R0=0.0806 X0=0.0487 C1=0 C0=0 Normamps=391.3
New Line.FD_E713_E714_6 bus1=754 bus2=748 Units=none Length=0.365 R1=0.02327 X1=0.0456 R0=0.0806 X0=0.0487 C1=0 C0=0 Normamps=391.3
New Line.FD_E713_SS23_1 bus1=755 bus2=743 Units=none Length=0.06 R1=0.02327 X1=0.0456 R0=0.0806 X0=0.0487 C1=0 C0=0 Normamps=391.3
New Line.FD_E713_SS23_2 bus1=756 bus2=745 Units=none Length=0.06 R1=0.02327 X1=0.0456 R0=0.0806 X0=0.0487 C1=0 C0=0 Normamps=391.3
New Line.FD_T_061 bus1=608 bus2=755 Units=none Length=0.06 R1=0.02327 X1=0.0456 R0=0.0806 X0=0.0487 C1=0 C0=0 Normamps=391.3
New Line.FD_T_62 bus1=609 bus2=756 Units=none Length=0.06 R1=0.02327 X1=0.0456 R0=0.0806 X0=0.0487 C1=0 C0=0 Normamps=391.3
New Line.FD_E714_E717_1 bus1=766 bus2=753 Units=none Length=1.3 R1=0.02327 X1=0.0456 R0=0.0806 X0=0.0487 C1=0 C0=0 Normamps=391.3
New Line.FD_E714_E717_2 bus1=765 bus2=754 Units=none Length=1.3 R1=0.02327 X1=0.0456 R0=0.0806 X0=0.0487 C1=0 C0=0 Normamps=391.3
New Line.FD_E714_E717_3 bus1=764 bus2=749 Units=none Length=1.3 R1=0.02327 X1=0.0456 R0=0.0806 X0=0.0487 C1=0 C0=0 Normamps=391.3
New Line.FD_E714_E717_4 bus1=761 bus2=750 Units=none Length=1.3 R1=0.02327 X1=0.0456 R0=0.0806 X0=0.0487 C1=0 C0=0 Normamps=391.3
New Line.FD_E714_E717_5 bus1=759 bus2=751 Units=none Length=1.3 R1=0.02327 X1=0.0456 R0=0.0806 X0=0.0487 C1=0 C0=0 Normamps=391.3
New Line.FD_E714_E717_6 bus1=758 bus2=752 Units=none Length=1.3 R1=0.02327 X1=0.0456 R0=0.0806 X0=0.0487 C1=0 C0=0 Normamps=391.3
New Line.FD_E717_SS92 bus1=765 bus2=814 Units=none Length=0.1 R1=0.02327 X1=0.0456 R0=0.0806 X0=0.0487 C1=0 C0=0 Normamps=391.3
New Line.FD_E717_SS93 bus1=766 bus2=815 Units=none Length=0.1 R1=0.02327 X1=0.0456 R0=0.0806 X0=0.0487 C1=0 C0=0 Normamps=391.3
New Line.TIE_SS92_SS93 bus1=816 bus2=817 Units=none Length=0.01 R1=0.02327 X1=0.0456 R0=0.0806 X0=0.0487 C1=0 C0=0 Normamps=391.3
New Line.FD_US_1 bus1=826 bus2=828 Units=none Length=0.055 R1=0.02327 X1=0.0456 R0=0.0806 X0=0.0487 C1=0 C0=0 Normamps=391.3
...
New Transformer.T_30 Phases=3 Windings=2 XHL=7.6482 Wdg=1 Bus=4 Conn=delta kV=69 kVA=15000 tap=1 %R=0.21245 Wdg=2 Bus=16 Conn=wye kV=12.47 kVA=15000 tap=1 %R=0.21245 rneut=-10
New Transformer.T_31 Phases=3 Windings=2 XHL=7.6482 Wdg=1 Bus=9 Conn=delta kV=69 kVA=15000 tap=1 %R=0.21245 Wdg=2 Bus=17 Conn=wye kV=12.47 kVA=15000 tap=1 %R=0.21245 rneut=-10
New Transformer.T_32 Phases=3 Windings=2 XHL=7.4285 Wdg=1 Bus=13 Conn=delta kV=69 kVA=15000 tap=1 %R=0.20635 Wdg=2 Bus=21 Conn=wye kV=12.47 kVA=15000 tap=1 %R=0.20635 rneut=-10
New Transformer.XFMR_283 Phases=3 Windings=2 XHL=5.892 Wdg=1 Bus=103 Conn=delta kV=12 kVA=1000 tap=1 %R=0.4142 Wdg=2 Bus=PREUSS_SCHOOL Conn=wye kV=0.48 kVA=1000 tap=1 %R=0.4142
New Transformer.XFMR_211 Phases=3 Windings=2 XHL=6.2079 Wdg=1 Bus=177 Conn=delta kV=12 kVA=1500 tap=1 %R=0.40297 Wdg=2 Bus=HE Conn=wye kV=0.48 kVA=1500 tap=1 %R=0.40297
New Transformer.XFMR_210 Phases=3 Windings=2 XHL=6.2079 Wdg=1 Bus=178 Conn=delta kV=12 kVA=1500 tap=1 %R=0.40297 Wdg=2 Bus=HW Conn=wye kV=0.48 kVA=1500 tap=1 %R=0.40297
New Transformer.XFMR_209 Phases=3 Windings=2 XHL=6.2531 Wdg=1 Bus=179 Conn=delta kV=12 kVA=2500 tap=1 %R=0.38362 Wdg=2 Bus=CPA Conn=wye kV=0.48 kVA=2500 tap=1 %R=0.38362
New Transformer.XFMR_306 Phases=3 Windings=2 XHL=5.8425 Wdg=1 Bus=219 Conn=delta kV=12 kVA=1000 tap=1 %R=0.41073 Wdg=2 Bus=SHILEY_EYE_C Conn=wye kV=0.48 kVA=1000 tap=1 %R=0.41073
New Transformer.XFMR_307 Phases=3 Windings=2 XHL=5.4384 Wdg=1 Bus=220 Conn=delta kV=12 kVA=2000 tap=1 %R=0.41054 Wdg=2 Bus=L_XFMR307 Conn=wye kV=0.48 kVA=2000 tap=1 %R=0.41054
New Transformer.XFMR_308 Phases=3 Windings=2 XHL=5.4384 Wdg=1 Bus=222 Conn=delta kV=12 kVA=2000 tap=1 %R=0.41054 Wdg=2 Bus=L_XFMR308 Conn=wye kV=0.48 kVA=2000 tap=1 %R=0.41054
New Transformer.XFMR_335 Phases=3 Windings=2 XHL=5.0416 Wdg=1 Bus=279 Conn=delta kV=12 kVA=3000 tap=1 %R=0.35022 Wdg=2 Bus=SUB_1A Conn=wye kV=4.16 kVA=3000 tap=1 %R=0.35022
New Transformer.XFMR_336 Phases=3 Windings=2 XHL=5.7642 Wdg=1 Bus=280 Conn=delta kV=12 kVA=1500 tap=1 %R=0.46904 Wdg=2 Bus=SUB_2A Conn=wye kV=0.48 kVA=1500 tap=1 %R=0.46904
New Transformer.XFMR_310 Phases=3 Windings=2 XHL=5.4286 Wdg=1 Bus=224 Conn=delta kV=12 kVA=1500 tap=1 %R=0.44173 Wdg=2 Bus=L_XFMR310 Conn=wye kV=0.48 kVA=1500 tap=1 %R=0.44173
New Transformer.XFMR_311 Phases=3 Windings=2 XHL=5.4286 Wdg=1 Bus=226 Conn=delta kV=12 kVA=1500 tap=1 %R=0.44173 Wdg=2 Bus=L_XFMR311 Conn=wye kV=0.48 kVA=1500 tap=1 %R=0.44173
New Transformer.XFMR_309 Phases=3 Windings=2 XHL=4.8875 Wdg=1 Bus=228 Conn=delta kV=12 kVA=300 tap=1 %R=0.4778 Wdg=2 Bus=SHILEY_EMERG Conn=wye kV=0.48 kVA=300 tap=1 %R=0.4778
New Transformer.XFMR_171 Phases=3 Windings=2 XHL=5.9023 Wdg=1 Bus=437 Conn=delta kV=12 kVA=1500 tap=1 %R=0.48029 Wdg=2 Bus=CAMP_SERV Conn=wye kV=0.48 kVA=1500 tap=1 %R=0.48029
New Transformer.XFMR_241 Phases=3 Windings=2 XHL=5.6548 Wdg=1 Bus=438 Conn=delta kV=12 kVA=750 tap=1 %R=0.52112 Wdg=2 Bus=3159 Conn=wye kV=0.48 kVA=750 tap=1 %R=0.52112
New Transformer.XFMR_172 Phases=3 Windings=2 XHL=4.6323 Wdg=1 Bus=440 Conn=delta kV=12 kVA=300 tap=1 %R=0.45285 Wdg=2 Bus=GREENHOUSE Conn=wye kV=0.48 kVA=300 tap=1 %R=0.45285
New Transformer.XFMR_168 Phases=3 Windings=2 XHL=4.7217 Wdg=1 Bus=485 Conn=delta kV=12 kVA=500 tap=1 %R=0.43186 Wdg=2 Bus=MATTHEWS_168 Conn=wye kV=0.208 kVA=500 tap=1 %R=0.43186
New Transformer.XFMR_170 Phases=3 Windings=2 XHL=4.92 Wdg=1 Bus=489 Conn=delta kV=12 kVA=500 tap=1 %R=0.45 Wdg=2 Bus=MATTHEWS_170 Conn=wye kV=0.208 kVA=500 tap=1 %R=0.45
New Transformer.XFMR_217 Phases=3 Windings=2 XHL=5.9229 Wdg=1 Bus=621 Conn=delta kV=12 kVA=2000 tap=1 %R=0.44712 Wdg=2 Bus=SOUTH_EBU2 Conn=wye kV=0.48 kVA=2000 tap=1 %R=0.44712
New Transformer.XFMR_221 Phases=3 Windings=2 XHL=5.7419 Wdg=1 Bus=622 Conn=delta kV=12 kVA=2500 tap=1 %R=0.40941 Wdg=2 Bus=LAB_EBU32 Conn=wye kV=0.48 kVA=2500 tap=1 %R=0.40941
New Transformer.XFMR_326 Phases=3 Windings=2 XHL=4.92 Wdg=1 Bus=623 Conn=delta kV=12 kVA=500 tap=1 %R=0.45 Wdg=2 Bus=CANYONVIEW_AQ_CENTER Conn=wye kV=0.48 kVA=500 tap=1 %R=0.45
New Transformer.XFMR_323 Phases=3 Windings=2 XHL=6.3666 Wdg=1 Bus=624 Conn=delta kV=12 kVA=1500 tap=1 %R=0.41327 Wdg=2 Bus=CAL_IT_1 Conn=wye kV=0.48 kVA=1500 tap=1 %R=0.41327
New Transformer.XFMR_322 Phases=3 Windings=2 XHL=6.3368 Wdg=1 Bus=625 Conn=delta kV=12 kVA=1500 tap=1 %R=0.41134 Wdg=2 Bus=CAL_IT_2 Conn=wye kV=0.48 kVA=1500 tap=1 %R=0.41134
New Transformer.XFMR_321 Phases=3 Windings=2 XHL=6.3666 Wdg=1 Bus=626 Conn=delta kV=12 kVA=1500 tap=1 %R=0.41327 Wdg=2 Bus=CAL_IT_3 Conn=wye kV=0.48 kVA=1500 tap=1 %R=0.41327
New Transformer.XFMR_324 Phases=3 Windings=2 XHL=5.5964 Wdg=1 Bus=629 Conn=delta kV=12 kVA=1500 tap=1 %R=0.45539 Wdg=2 Bus=BIO_ENG_1 Conn=wye kV=0.48 kVA=1500 tap=1 %R=0.45539
New Transformer.XFMR_325 Phases=3 Windings=2 XHL=5.5766 Wdg=1 Bus=630 Conn=delta kV=12 kVA=1500 tap=1 %R=0.45378 Wdg=2 Bus=BIO_ENG_2 Conn=wye kV=0.48 kVA=1500 tap=1 %R=0.45378
New Transformer.XFMR_298 Phases=3 Windings=2 XHL=5.6951 Wdg=1 Bus=631 Conn=delta kV=12 kVA=1500 tap=1 %R=0.46342 Wdg=2 Bus=COMP_SC_1 Conn=wye kV=0.48 kVA=1500 tap=1 %R=0.46342
New Transformer.XFMR_297 Phases=3 Windings=2 XHL=5.6852 Wdg=1 Bus=632 Conn=delta kV=12 kVA=1500 tap=1 %R=0.46262 Wdg=2 Bus=COMP_SC_2 Conn=wye kV=0.48 kVA=1500 tap=1 %R=0.46262
New Transformer.XFMR_218 Phases=3 Windings=2 XHL=5.9229 Wdg=1 Bus=757 Conn=delta kV=12 kVA=2000 tap=1 %R=0.44712 Wdg=2 Bus=NORTH_EBU2 Conn=wye kV=0.48 kVA=2000 tap=1 %R=0.44712
New Transformer.XFMR_215 Phases=3 Windings=2 XHL=6.6722 Wdg=1 Bus=635 Conn=delta kV=12 kVA=1500 tap=1 %R=0.54293 Wdg=2 Bus=CANYONVIEW_APT Conn=wye kV=0.48 kVA=1500 tap=1 %R=0.54293
New Transformer.XFMR_346 Phases=3 Windings=2 XHL=5.3496 Wdg=1 Bus=831 Conn=delta kV=12 kVA=1500 tap=1 %R=0.43531 Wdg=2 Bus=L_XFMR_346 Conn=wye kV=0.48 kVA=1500 tap=1 %R=0.43531
New Transformer.XFMR_347 Phases=3 Windings=2 XHL=5.4384 Wdg=1 Bus=832 Conn=delta kV=12 kVA=1500 tap=1 %R=0.44254 Wdg=2 Bus=L_XFMR_347 Conn=wye kV=0.48 kVA=1500 tap=1 %R=0.44254
New Transformer.XFMR_219 Phases=3 Windings=2 XHL=5.4046 Wdg=1 Bus=770 Conn=delta kV=12 kVA=1500 tap=1 %R=0.35083 Wdg=2 Bus=US1_EAST Conn=wye kV=0.48 kVA=1500 tap=1 %R=0.35083
New Transformer.XFMR_220 Phases=3 Windings=2 XHL=5.4046 Wdg=1 Bus=774 Conn=delta kV=12 kVA=1500 tap=1 %R=0.35083 Wdg=2 Bus=US1_WEST Conn=wye kV=0.48 kVA=1500 tap=1 %R=0.35083
New Transformer.XFMR_240 Phases=3 Windings=2 XHL=5.9006 Wdg=1 Bus=893 Conn=delta kV=12 kVA=750 tap=1 %R=0.54378 Wdg=2 Bus=SOCIAL_SCIENCE Conn=wye kV=0.48 kVA=750 tap=1 %R=0.54378
New Transformer.XFMR_VISUAL_ARTS Phases=3 Windings=2 XHL=5.7815 Wdg=1 Bus=778 Conn=delta kV=12 kVA=1500 tap=1 %R=0.37529 Wdg=2 Bus=VISUAL_ARTS_FACILITY Conn=wye kV=0.48 kVA=1500 tap=1 %R=0.37529
New Transformer.XFMR_HIGHBAYPHYSICS Phases=3 Windings=2 XHL=4.4265 Wdg=1 Bus=782 Conn=delta kV=12 kVA=500 tap=1 %R=0.40486 Wdg=2 Bus=HIGHBAYPHYSICS Conn=wye kV=0.48 kVA=500 tap=1 %R=0.40486
New Transformer.XFMR_POWELL_LAB Phases=3 Windings=2 XHL=5.6361 Wdg=1 Bus=894 Conn=delta kV=12 kVA=2000 tap=1 %R=0.42547 Wdg=2 Bus=POWELL_LAB Conn=wye kV=0.48 kVA=2000 tap=1 %R=0.42547
New Transformer.XFMR_246 Phases=3 Windings=2 XHL=6.1041 Wdg=1 Bus=786 Conn=delta kV=12 kVA=2000 tap=1 %R=0.37482 Wdg=2 Bus=SUB_D Conn=wye kV=0.48 kVA=2000 tap=1 %R=0.37482
New Transformer.XFMR_188 Phases=3 Windings=2 XHL=5.9501 Wdg=1 Bus=790 Conn=delta kV=12 kVA=1500 tap=1 %R=0.38623 Wdg=2 Bus=IR_BLDG Conn=wye kV=0.48 kVA=1500 tap=1 %R=0.38623
New Transformer.XFMR_137 Phases=3 Windings=2 XHL=6.1286 Wdg=1 Bus=1001 Conn=delta kV=12 kVA=1500 tap=1 %R=0.39782 Wdg=2 Bus=ENGINEERING_BLDG1 Conn=wye kV=0.48 kVA=1500 tap=1 %R=0.39782
New Transformer.XFMR_138 Phases=3 Windings=2 XHL=6.0195 Wdg=1 Bus=1002 Conn=delta kV=12 kVA=1500 tap=1 %R=0.39074 Wdg=2 Bus=ENGINEERING_BLDG2 Conn=wye kV=0.48 kVA=1500 tap=1 %R=0.39074
New Transformer.XFMR_139 Phases=3 Windings=2 XHL=6.1175 Wdg=1 Bus=1003 Conn=delta kV=12 kVA=1000 tap=1 %R=0.53378 Wdg=2 Bus=LOAD_XFMR139 Conn=wye kV=0.48 kVA=1000 tap=1 %R=0.53378
New Transformer.XFMR_140 Phases=3 Windings=2 XHL=5.6056 Wdg=1 Bus=1004 Conn=delta kV=12 kVA=750 tap=1 %R=0.5166 Wdg=2 Bus=LOAD_XFMR140 Conn=wye kV=0.48 kVA=750 tap=1 %R=0.5166
New Transformer.XFMR_CMRR Phases=3 Windings=2 XHL=5.7728 Wdg=1 Bus=1005 Conn=delta kV=12 kVA=750 tap=1 %R=0.532 Wdg=2 Bus=LOAD_CMRR Conn=wye kV=0.48 kVA=750 tap=1 %R=0.532
New Transformer.XFMR_350 Phases=3 Windings=2 XHL=5.727 Wdg=1 Bus=1007 Conn=delta kV=12 kVA=2000 tap=1 %R=0.35166 Wdg=2 Bus=PRICE_CNTR350 Conn=wye kV=0.48 kVA=2000 tap=1 %R=0.35166
New Transformer.XFMR_351 Phases=3 Windings=2 XHL=5.5336 Wdg=1 Bus=1008 Conn=delta kV=12 kVA=1500 tap=1 %R=0.35919 Wdg=2 Bus=PRICE_CNTR351 Conn=wye kV=0.48 kVA=1500 tap=1 %R=0.35919
New Transformer.XFMR_352 Phases=3 Windings=2 XHL=5.7236 Wdg=1 Bus=1009 Conn=delta kV=12 kVA=750 tap=1 %R=0.52747 Wdg=2 Bus=LOAD_XFMR352 Conn=wye kV=0.208 kVA=750 tap=1 %R=0.52747
New Transformer.XFMR_183 Phases=3 Windings=2 XHL=4.9172 Wdg=1 Bus=1010 Conn=delta kV=12 kVA=750 tap=1 %R=0.45315 Wdg=2 Bus=CENT_LIB_183 Conn=wye kV=0.48 kVA=750 tap=1 %R=0.45315
New Transformer.XFMR_182 Phases=3 Windings=2 XHL=5.3105 Wdg=1 Bus=1011 Conn=delta kV=12 kVA=750 tap=1 %R=0.4894 Wdg=2 Bus=CENT_LIB_182 Conn=wye kV=0.48 kVA=750 tap=1 %R=0.4894
New Transformer.XFMR_184 Phases=3 Windings=2 XHL=5.6457 Wdg=1 Bus=1012 Conn=delta kV=12 kVA=1500 tap=1 %R=0.45941 Wdg=2 Bus=CENT_LIB_184 Conn=wye kV=0.48 kVA=1500 tap=1 %R=0.45941
New Transformer.XFMR_296 Phases=3 Windings=2 XHL=5.1 Wdg=1 Bus=1015 Conn=delta kV=12 kVA=750 tap=1 %R=0.47 Wdg=2 Bus=MATTHEWS_SUB Conn=wye kV=0.48 kVA=750 tap=1 %R=0.47
New Transformer.XFMR_238 Phases=3 Windings=2 XHL=5.1 Wdg=1 Bus=895 Conn=delta kV=12 kVA=1000 tap=1 %R=0.445 Wdg=2 Bus=CLASSROOM Conn=wye kV=0.48 kVA=1000 tap=1 %R=0.445
New Transformer.XFMR_272 Phases=3 Windings=2 XHL=5.5265 Wdg=1 Bus=896 Conn=delta kV=12 kVA=1000 tap=1 %R=0.48221 Wdg=2 Bus=MAAC_BLDGS Conn=wye kV=0.48 kVA=1000 tap=1 %R=0.48221
New Transformer.XFMR_318 Phases=3 Windings=2 XHL=5.4089 Wdg=1 Bus=897 Conn=delta kV=12 kVA=750 tap=1 %R=0.49846 Wdg=2 Bus=MULTIPUPR_BLDG Conn=wye kV=0.48 kVA=750 tap=1 %R=0.49846
New Transformer.XFMR_281 Phases=3 Windings=2 XHL=4.9478 Wdg=1 Bus=1020 Conn=delta kV=12 kVA=750 tap=1 %R=0.36024 Wdg=2 Bus=GILMAN_PARK Conn=wye kV=0.48 kVA=750 tap=1 %R=0.36024
New Transformer.XFMR_269 Phases=3 Windings=2 XHL=5.7053 Wdg=1 Bus=1022 Conn=delta kV=12 kVA=500 tap=1 %R=0.52183 Wdg=2 Bus=ERC Conn=wye kV=2.4 kVA=500 tap=1 %R=0.52183
New Transformer.XFMR_SS166 Phases=3 Windings=2 XHL=3.856 Wdg=1 Bus=1025 Conn=delta kV=12 kVA=500 tap=1 %R=0.35269 Wdg=2 Bus=3rd_COLLEGE_RESIDENCE Conn=wye kV=0.208 kVA=500 tap=1 %R=0.35269
New Transformer.XFMR_299 Phases=3 Windings=2 XHL=5.6151 Wdg=1 Bus=1030 Conn=delta kV=12 kVA=1000 tap=1 %R=0.48995 Wdg=2 Bus=ERC_2 Conn=wye kV=0.48 kVA=1000 tap=1 %R=0.48995
New Transformer.XFMR_PANGEA Phases=3 Windings=2 XHL=3.2906 Wdg=1 Bus=1031 Conn=delta kV=12 kVA=500 tap=1 %R=0.42778 Wdg=2 Bus=PANGEA_PARK Conn=wye kV=0.48 kVA=500 tap=1 %R=0.42778
New Transformer.XFMR_ATLFIELD Phases=3 Windings=2 XHL=4.92 Wdg=1 Bus=1032 Conn=delta kV=12 kVA=500 tap=1 %R=0.45 Wdg=2 Bus=ATLETIC_FIELD Conn=wye kV=0.48 kVA=500 tap=1 %R=0.45
New Transformer.XFMR_345 Phases=3 Windings=2 XHL=5.3848 Wdg=1 Bus=1033 Conn=delta kV=12 kVA=1500 tap=1 %R=0.34954 Wdg=2 Bus=SCHOOLofMANAGEMENT Conn=wye kV=0.48 kVA=1500 tap=1 %R=0.34954
New Transformer.XFMR_BLDG3C500kVA Phases=3 Windings=2 XHL=5.3414 Wdg=1 Bus=1034 Conn=delta kV=12 kVA=500 tap=1 %R=0.48854 Wdg=2 Bus=BLDG3C_500kVA Conn=wye kV=0.48 kVA=500 tap=1 %R=0.48854
New Transformer.XFMR_BLDG3C300 Phases=3 Windings=2 XHL=5.2506 Wdg=1 Bus=1035 Conn=delta kV=12 kVA=300 tap=1 %R=0.51329 Wdg=2 Bus=BLDG3C_300kVA Conn=wye kV=0.208 kVA=300 tap=1 %R=0.51329
New Transformer.XFMR_BLDG3B_480V Phases=3 Windings=2 XHL=5.3931 Wdg=1 Bus=1036 Conn=delta kV=12 kVA=750 tap=1 %R=0.39265 Wdg=2 Bus=BLDG3B_480V Conn=wye kV=0.48 kVA=750 tap=1 %R=0.39265
New Transformer.XFMR_BLDG3B_208V Phases=3 Windings=2 XHL=5.9176 Wdg=1 Bus=1037 Conn=delta kV=12 kVA=750 tap=1 %R=0.43084 Wdg=2 Bus=BLDG3B_208V Conn=wye kV=0.208 kVA=750 tap=1 %R=0.43084
New Transformer.XFMR_BLDG3E Phases=3 Windings=2 XHL=4 Wdg=1 Bus=637 Conn=delta kV=12 kVA=500 tap=1 %R=0.52 Wdg=2 Bus=BUILDING_3E Conn=wye kV=0.48 kVA=500 tap=1 %R=0.52
New Transformer.XFMR_MARSHALLSUB Phases=3 Windings=2 XHL=4.92 Wdg=1 Bus=638 Conn=delta kV=12 kVA=500 tap=1 %R=0.45 Wdg=2 Bus=MARSHALLSUB Conn=wye kV=0.48 kVA=500 tap=1 %R=0.45
New Transformer.XFMR_192 Phases=3 Windings=2 XHL=5.8013 Wdg=1 Bus=1040 Conn=delta kV=12 kVA=1500 tap=1 %R=0.37657 Wdg=2 Bus=MANDEVILLE_CTR Conn=wye kV=0.48 kVA=1500 tap=1 %R=0.37657
New Transformer.XFMR_290 Phases=3 Windings=2 XHL=4.8391 Wdg=1 Bus=1041 Conn=delta kV=12 kVA=500 tap=1 %R=0.62909 Wdg=2 Bus=STUDENT_CTR1 Conn=wye kV=0.208 kVA=500 tap=1 %R=0.62909
New Transformer.XFMR_PHYSEDU Phases=3 Windings=2 XHL=4.4265 Wdg=1 Bus=1043 Conn=delta kV=12 kVA=500 tap=1 %R=0.40486 Wdg=2 Bus=PHYS_EDU_BLDGS Conn=wye kV=0.48 kVA=500 tap=1 %R=0.40486
New Transformer.XFMR_150 Phases=3 Windings=2 XHL=6.0973 Wdg=1 Bus=1044 Conn=delta kV=12 kVA=750 tap=1 %R=0.56191 Wdg=2 Bus=BLDG2B_208V Conn=wye kV=0.208 kVA=750 tap=1 %R=0.56191
New Transformer.XFMR_149 Phases=3 Windings=2 XHL=5.9037 Wdg=1 Bus=1045 Conn=delta kV=12 kVA=500 tap=1 %R=0.76748 Wdg=2 Bus=BLDG2B_480 Conn=wye kV=0.208 kVA=500 tap=1 %R=0.76748
New Transformer.XFMR_BLDG2D Phases=3 Windings=2 XHL=5.9107 Wdg=1 Bus=1052 Conn=delta kV=12 kVA=1000 tap=1 %R=0.51574 Wdg=2 Bus=BLDG_2D Conn=wye kV=0.208 kVA=1000 tap=1 %R=0.51574
New Transformer.XFMR_BLDG2A_SUB1 Phases=3 Windings=2 XHL=5.8409 Wdg=1 Bus=1053 Conn=delta kV=12 kVA=2500 tap=1 %R=0.41647 Wdg=2 Bus=BLDG_2A_SUB1 Conn=wye kV=0.48 kVA=2500 tap=1 %R=0.41647
New Transformer.XFMR_BLDG2A_SUB2 Phases=3 Windings=2 XHL=5.3787 Wdg=1 Bus=1054 Conn=delta kV=12 kVA=1000 tap=1 %R=0.46932 Wdg=2 Bus=BLDG_2A_SUB2 Conn=wye kV=0.48 kVA=1000 tap=1 %R=0.46932
New Transformer.XFMR_BLDG2A_SUB3 Phases=3 Windings=2 XHL=5.4674 Wdg=1 Bus=1055 Conn=delta kV=12 kVA=1000 tap=1 %R=0.47706 Wdg=2 Bus=BLDG_2A_SUB3 Conn=wye kV=0.48 kVA=1000 tap=1 %R=0.47706
New Transformer.XFMR_195 Phases=3 Windings=2 XHL=5.9416 Wdg=1 Bus=1713 Conn=delta kV=12 kVA=1000 tap=1 %R=0.41768 Wdg=2 Bus=BLDG_2C_1 Conn=wye kV=0.208 kVA=1000 tap=1 %R=0.41768
New Transformer.XFMR_339 Phases=3 Windings=2 XHL=5.6504 Wdg=1 Bus=1706 Conn=delta kV=12 kVA=750 tap=1 %R=0.41139 Wdg=2 Bus=DINING_COMMONS Conn=wye kV=0.208 kVA=750 tap=1 %R=0.41139
New Transformer.XFMR_TENEYA Phases=3 Windings=2 XHL=5.2069 Wdg=1 Bus=898 Conn=delta kV=12 kVA=500 tap=1 %R=0.6769 Wdg=2 Bus=TENEYA Conn=wye kV=0.208 kVA=500 tap=1 %R=0.6769
New Transformer.XFMR_TIOGA Phases=3 Windings=2 XHL=5.2069 Wdg=1 Bus=899 Conn=delta kV=12 kVA=500 tap=1 %R=0.6769 Wdg=2 Bus=TIOGA Conn=wye kV=0.208 kVA=500 tap=1 %R=0.6769
New Transformer.XFMR_MUIRAPTS Phases=3 Windings=2 XHL=5.7 Wdg=1 Bus=1707 Conn=delta kV=12 kVA=750 tap=1 %R=0.415 Wdg=2 Bus=MUIR_APTS Conn=wye kV=0.208 kVA=750 tap=1 %R=0.415
New Transformer.XFMR_UREYHALL_1 Phases=3 Windings=2 XHL=5.1 Wdg=1 Bus=902 Conn=delta kV=12 kVA=1500 tap=1 %R=0.415 Wdg=2 Bus=UREY_HALL_1 Conn=wye kV=0.48 kVA=1500 tap=1 %R=0.415
New Transformer.XFMR_UREYHALL_2 Phases=3 Windings=2 XHL=6.2062 Wdg=1 Bus=903 Conn=delta kV=12 kVA=1000 tap=1 %R=0.54152 Wdg=2 Bus=UREY_HALL_2 Conn=wye kV=0.208 kVA=1000 tap=1 %R=0.54152
New Transformer.XFMR_UREYHALL_3 Phases=3 Windings=2 XHL=5.5659 Wdg=1 Bus=904 Conn=delta kV=12 kVA=1000 tap=1 %R=0.48565 Wdg=2 Bus=UREY_HALL_3 Conn=wye kV=0.48 kVA=1000 tap=1 %R=0.48565
New Transformer.XFMR_213 Phases=3 Windings=2 XHL=5.6644 Wdg=1 Bus=905 Conn=delta kV=12 kVA=1000 tap=1 %R=0.49424 Wdg=2 Bus=PACIFIC_HALL_1 Conn=wye kV=0.208 kVA=1000 tap=1 %R=0.49424
New Transformer.XFMR_212 Phases=3 Windings=2 XHL=5.6644 Wdg=1 Bus=908 Conn=delta kV=12 kVA=1000 tap=1 %R=0.49424 Wdg=2 Bus=PACIFIC_HALL_2 Conn=wye kV=0.208 kVA=1000 tap=1 %R=0.49424
New Transformer.XFMR_214 Phases=3 Windings=2 XHL=5.6924 Wdg=1 Bus=911 Conn=delta kV=12 kVA=2500 tap=1 %R=0.40589 Wdg=2 Bus=PACIFIC_HALL_3 Conn=wye kV=0.48 kVA=2500 tap=1 %R=0.40589
New Transformer.XFMR_154 Phases=3 Windings=2 XHL=5.4102 Wdg=1 Bus=912 Conn=delta kV=12 kVA=500 tap=1 %R=0.49484 Wdg=2 Bus=Load_XFMR154 Conn=wye kV=0.208 kVA=500 tap=1 %R=0.49484
New Transformer.XFMR_155 Phases=3 Windings=2 XHL=5.6134 Wdg=1 Bus=913 Conn=delta kV=12 kVA=500 tap=1 %R=0.72974 Wdg=2 Bus=LC_B Conn=wye kV=0.48 kVA=500 tap=1 %R=0.72974
New Transformer.XFMR_247 Phases=3 Windings=2 XHL=6.0406 Wdg=1 Bus=914 Conn=delta kV=12 kVA=1000 tap=1 %R=0.42464 Wdg=2 Bus=LC_C Conn=wye kV=0.208 kVA=1000 tap=1 %R=0.42464
New Transformer.XFMR_268 Phases=3 Windings=2 XHL=5.1 Wdg=1 Bus=915 Conn=delta kV=12 kVA=1500 tap=1 %R=0.415 Wdg=2 Bus=GALBRAITH_HALL Conn=wye kV=0.48 kVA=1500 tap=1 %R=0.415
New Transformer.XFMR_AGROBLAKE Phases=3 Windings=2 XHL=6.0406 Wdg=1 Bus=1056 Conn=delta kV=12 kVA=1000 tap=1 %R=0.42464 Wdg=2 Bus=AGRO_BLAKE_HALLS Conn=wye kV=0.48 kVA=1000 tap=1 %R=0.42464
New Transformer.XFMR_REVELLE_CAFE Phases=3 Windings=2 XHL=5.8186 Wdg=1 Bus=1057 Conn=delta kV=12 kVA=750 tap=1 %R=0.42364 Wdg=2 Bus=REVELLE_CAFE Conn=wye kV=0.208 kVA=750 tap=1 %R=0.42364
New Transformer.XFMR_280 Phases=3 Windings=2 XHL=5.6405 Wdg=1 Bus=1058 Conn=delta kV=12 kVA=750 tap=1 %R=0.41067 Wdg=2 Bus=YORK_HALL_3 Conn=wye kV=0.208 kVA=750 tap=1 %R=0.41067
New Transformer.XFMR_279 Phases=3 Windings=2 XHL=5.2332 Wdg=1 Bus=1059 Conn=delta kV=12 kVA=500 tap=1 %R=0.47864 Wdg=2 Bus=YORK_HALL_2 Conn=wye kV=0.48 kVA=500 tap=1 %R=0.47864
New Transformer.XFMR_278 Phases=3 Windings=2 XHL=6.0604 Wdg=1 Bus=1060 Conn=delta kV=12 kVA=1000 tap=1 %R=0.42604 Wdg=2 Bus=YORK_HALL_1 Conn=wye kV=0.208 kVA=1000 tap=1 %R=0.42604
New Transformer.XFMR_144 Phases=3 Windings=2 XHL=5.6346 Wdg=1 Bus=1061 Conn=delta kV=12 kVA=1000 tap=1 %R=0.3961 Wdg=2 Bus=MAYER_HALL_480 Conn=wye kV=0.48 kVA=1000 tap=1 %R=0.3961
New Transformer.XFMR_273 Phases=3 Windings=2 XHL=5.2781 Wdg=1 Bus=1062 Conn=delta kV=12 kVA=1000 tap=1 %R=0.37105 Wdg=2 Bus=MAYER_HALL_208 Conn=wye kV=0.208 kVA=1000 tap=1 %R=0.37105
New Transformer.XFMR_353 Phases=3 Windings=2 XHL=5.6972 Wdg=1 Bus=1063 Conn=delta kV=12 kVA=2000 tap=1 %R=0.34983 Wdg=2 Bus=MAYER_HALL_EXP_1 Conn=wye kV=0.48 kVA=2000 tap=1 %R=0.34983
New Transformer.XFMR_354 Phases=3 Windings=2 XHL=5.6972 Wdg=1 Bus=1064 Conn=delta kV=12 kVA=2000 tap=1 %R=0.34983 Wdg=2 Bus=MAYER_HALL_EXP_2 Conn=wye kV=0.48 kVA=2000 tap=1 %R=0.34983
New Transformer.XFMR_329 Phases=3 Windings=2 XHL=5.6544 Wdg=1 Bus=918 Conn=delta kV=12 kVA=1000 tap=1 %R=0.39749 Wdg=2 Bus=PHARMACY_BLDG_1 Conn=wye kV=0.48 kVA=1000 tap=1 %R=0.39749
New Transformer.XFMR_330 Phases=3 Windings=2 XHL=5.6346 Wdg=1 Bus=917 Conn=delta kV=12 kVA=1000 tap=1 %R=0.3961 Wdg=2 Bus=PHARMACY_BLDG_2 Conn=wye kV=0.48 kVA=1000 tap=1 %R=0.3961
New Transformer.XFMR_CMG Phases=3 Windings=2 XHL=5.4647 Wdg=1 Bus=919 Conn=delta kV=12 kVA=2500 tap=1 %R=0.38965 Wdg=2 Bus=CMG Conn=wye kV=0.48 kVA=2500 tap=1 %R=0.38965
New Transformer.XFMR_227 Phases=3 Windings=2 XHL=5.995 Wdg=1 Bus=916 Conn=delta kV=12 kVA=2000 tap=1 %R=0.36811 Wdg=2 Bus=CMM_EAST_1 Conn=wye kV=0.48 kVA=2000 tap=1 %R=0.36811
New Transformer.XFMR_228 Phases=3 Windings=2 XHL=5.8608 Wdg=1 Bus=921 Conn=delta kV=12 kVA=1500 tap=1 %R=0.38044 Wdg=2 Bus=CMM_EAST_2 Conn=wye kV=0.48 kVA=1500 tap=1 %R=0.38044
New Transformer.XFMR_314 Phases=3 Windings=2 XHL=5.8112 Wdg=1 Bus=926 Conn=delta kV=12 kVA=1500 tap=1 %R=0.37722 Wdg=2 Bus=MED_RESEARCH_FACIL_A Conn=wye kV=0.48 kVA=1500 tap=1 %R=0.37722
New Transformer.XFMR_315 Phases=3 Windings=2 XHL=5.9402 Wdg=1 Bus=927 Conn=delta kV=12 kVA=1500 tap=1 %R=0.38559 Wdg=2 Bus=MED_RESEARCH_FACIL_B Conn=wye kV=0.48 kVA=1500 tap=1 %R=0.38559
New Transformer.XFMR_316 Phases=3 Windings=2 XHL=5.7815 Wdg=1 Bus=928 Conn=delta kV=12 kVA=1500 tap=1 %R=0.37529 Wdg=2 Bus=MED_RESEARCH_FACIL_C Conn=wye kV=0.48 kVA=1500 tap=1 %R=0.37529
New Transformer.XFMR_148 Phases=3 Windings=2 XHL=6.0406 Wdg=1 Bus=932 Conn=delta kV=12 kVA=1000 tap=1 %R=0.42464 Wdg=2 Bus=SS_4 Conn=wye kV=0.208 kVA=1000 tap=1 %R=0.42464
New Transformer.XFMR_180 Phases=3 Windings=2 XHL=5.7053 Wdg=1 Bus=933 Conn=delta kV=12 kVA=2000 tap=1 %R=0.43069 Wdg=2 Bus=SS_5 Conn=wye kV=0.48 kVA=2000 tap=1 %R=0.43069
New Transformer.XFMR_181 Phases=3 Windings=2 XHL=5.4959 Wdg=1 Bus=934 Conn=delta kV=12 kVA=1000 tap=1 %R=0.38636 Wdg=2 Bus=SS_7 Conn=wye kV=0.208 kVA=1000 tap=1 %R=0.38636
New Transformer.XFMR_251 Phases=3 Windings=2 XHL=5.4365 Wdg=1 Bus=935 Conn=delta kV=12 kVA=1000 tap=1 %R=0.38218 Wdg=2 Bus=SS_6 Conn=wye kV=0.208 kVA=1000 tap=1 %R=0.38218
New Transformer.XFMR_145 Phases=3 Windings=2 XHL=6.0004 Wdg=1 Bus=936 Conn=delta kV=12 kVA=500 tap=1 %R=0.54882 Wdg=2 Bus=SS_3 Conn=wye kV=0.48 kVA=500 tap=1 %R=0.54882
New Transformer.XFMR_146 Phases=3 Windings=2 XHL=6.1396 Wdg=1 Bus=937 Conn=delta kV=12 kVA=1000 tap=1 %R=0.43161 Wdg=2 Bus=SS_2 Conn=wye kV=0.48 kVA=1000 tap=1 %R=0.43161
New Transformer.XFMR_147 Phases=3 Windings=2 XHL=6.1353 Wdg=1 Bus=938 Conn=delta kV=12 kVA=750 tap=1 %R=0.4467 Wdg=2 Bus=SS_1 Conn=wye kV=0.208 kVA=750 tap=1 %R=0.4467
New Transformer.XFMR_291 Phases=3 Windings=2 XHL=5.5367 Wdg=1 Bus=941 Conn=delta kV=12 kVA=750 tap=1 %R=0.51025 Wdg=2 Bus=SS_8 Conn=wye kV=0.48 kVA=750 tap=1 %R=0.51025
New Transformer.XFMR_334 Phases=3 Windings=2 XHL=5.7319 Wdg=1 Bus=942 Conn=delta kV=12 kVA=1500 tap=1 %R=0.37207 Wdg=2 Bus=BIO_MED_LIB Conn=wye kV=0.48 kVA=1500 tap=1 %R=0.37207
New Transformer.XFMR_194 Phases=3 Windings=2 XHL=5.9302 Wdg=1 Bus=923 Conn=delta kV=12 kVA=1500 tap=1 %R=0.38494 Wdg=2 Bus=CLINICAL_SCIENCE_B Conn=wye kV=0.48 kVA=1500 tap=1 %R=0.38494
New Transformer.XFMR_193 Phases=3 Windings=2 XHL=5.288 Wdg=1 Bus=931 Conn=delta kV=12 kVA=1000 tap=1 %R=0.37174 Wdg=2 Bus=CLINICAL_SCIENCE_A Conn=wye kV=0.48 kVA=1000 tap=1 %R=0.37174
New Transformer.XFMR_255 Phases=3 Windings=2 XHL=5.2843 Wdg=1 Bus=944 Conn=delta kV=12 kVA=750 tap=1 %R=0.38473 Wdg=2 Bus=IMG Conn=wye kV=0.48 kVA=750 tap=1 %R=0.38473
New Transformer.XFMR_MTF Phases=3 Windings=2 XHL=5.96 Wdg=1 Bus=945 Conn=delta kV=12 kVA=1500 tap=1 %R=0.38688 Wdg=2 Bus=MEDICAL_TEACHING_F Conn=wye kV=0.48 kVA=1500 tap=1 %R=0.38688
New Transformer.XFMR_288 Phases=3 Windings=2 XHL=5.468 Wdg=1 Bus=946 Conn=delta kV=4.16 kVA=2000 tap=1 %R=0.41279 Wdg=2 Bus=BLACKSTART_SUB Conn=wye kV=0.48 kVA=2000 tap=1 %R=0.41279
New Transformer.XFMR_234 Phases=3 Windings=2 XHL=5.5171 Wdg=1 Bus=2470 Conn=delta kV=12 kVA=2000 tap=1 %R=0.34481 Wdg=2 Bus=2457 Conn=wye kV=4.16 kVA=2000 tap=1 %R=0.34481
New Transformer.XFMR_TB236 Phases=3 Windings=2 XHL=4.9513 Wdg=1 Bus=2528 Conn=delta kV=12 kVA=1000 tap=1 %R=0.34807 Wdg=2 Bus=CMG1 Conn=wye kV=0.48 kVA=1000 tap=1 %R=0.34807
New Transformer.XFMR_TA Phases=3 Windings=2 XHL=5.9553 Wdg=1 Bus=2529 Conn=delta kV=12 kVA=2500 tap=1 %R=0.36536 Wdg=2 Bus=WC_3_6 Conn=wye kV=4.16 kVA=2500 tap=1 %R=0.36536
New Transformer.XFMR_233 Phases=3 Windings=2 XHL=5.5186 Wdg=1 Bus=947 Conn=delta kV=12 kVA=2500 tap=1 %R=0.33857 Wdg=2 Bus=WC_5_7 Conn=wye kV=4.16 kVA=2500 tap=1 %R=0.33857
New Transformer.XFMR_333 Phases=3 Windings=2 XHL=5.4888 Wdg=1 Bus=948 Conn=delta kV=12 kVA=2000 tap=1 %R=0.33703 Wdg=2 Bus=LOAD_US3N Conn=wye kV=0.48 kVA=2000 tap=1 %R=0.33703
New Transformer.XFMR_319 Phases=3 Windings=2 XHL=5.8064 Wdg=1 Bus=949 Conn=delta kV=12 kVA=2000 tap=1 %R=0.35653 Wdg=2 Bus=LOAD_US7N Conn=wye kV=0.48 kVA=2000 tap=1 %R=0.35653
New Transformer.XFMR_244 Phases=3 Windings=2 XHL=5.435 Wdg=1 Bus=950 Conn=delta kV=4.16 kVA=1000 tap=1 %R=0.45292 Wdg=2 Bus=CT34_1 Conn=wye kV=0.48 kVA=1000 tap=1 %R=0.45292
New Transformer.XFMR_231 Phases=3 Windings=2 XHL=5.6427 Wdg=1 Bus=2588 Conn=delta kV=12.47 kVA=1500 tap=1 %R=0.40305 Wdg=2 Bus=CT34_2 Conn=wye kV=0.48 kVA=1500 tap=1 %R=0.40305
New Transformer.XFMR_T86 Phases=3 Windings=2 XHL=5.5781 Wdg=1 Bus=951 Conn=delta kV=12 kVA=2000 tap=1 %R=0.34252 Wdg=2 Bus=CT_5_6 Conn=wye kV=0.48 kVA=2000 tap=1 %R=0.34252
New Transformer.XFMR_T106 Phases=3 Windings=2 XHL=5.96 Wdg=1 Bus=952 Conn=delta kV=12 kVA=1500 tap=1 %R=0.38688 Wdg=2 Bus=CT_7 Conn=wye kV=0.48 kVA=1500 tap=1 %R=0.38688
New Transformer.XFMR_T107 Phases=3 Windings=2 XHL=5.69 Wdg=1 Bus=953 Conn=delta kV=12 kVA=1000 tap=1 %R=0.4 Wdg=2 Bus=TES_PRI Conn=wye kV=0.48 kVA=1000 tap=1 %R=0.4
New Transformer.XFMR_186 Phases=3 Windings=2 XHL=5.3535 Wdg=1 Bus=955 Conn=delta kV=12 kVA=750 tap=1 %R=0.38977 Wdg=2 Bus=FORUM_THEATER Conn=wye kV=0.208 kVA=750 tap=1 %R=0.38977
New Transformer.XFMR_293 Phases=3 Windings=2 XHL=5.7138 Wdg=1 Bus=2691 Conn=delta kV=12 kVA=1000 tap=1 %R=0.40168 Wdg=2 Bus=SS_BA Conn=wye kV=0.48 kVA=1000 tap=1 %R=0.40168
New Transformer.XFMR_294 Phases=3 Windings=2 XHL=5.7633 Wdg=1 Bus=2692 Conn=delta kV=12 kVA=1000 tap=1 %R=0.40515 Wdg=2 Bus=SS_BB Conn=wye kV=0.48 kVA=1000 tap=1 %R=0.40515
New Transformer.XFMR_295 Phases=3 Windings=2 XHL=5.9699 Wdg=1 Bus=2693 Conn=delta kV=12 kVA=1500 tap=1 %R=0.38752 Wdg=2 Bus=SS_BC Conn=wye kV=0.48 kVA=1500 tap=1 %R=0.38752
New Transformer.XFMR_265 Phases=3 Windings=2 XHL=5.9104 Wdg=1 Bus=957 Conn=delta kV=12 kVA=1500 tap=1 %R=0.38366 Wdg=2 Bus=ENDURANCE_HALL_1 Conn=wye kV=0.208 kVA=1500 tap=1 %R=0.38366
New Transformer.XFMR_264 Phases=3 Windings=2 XHL=5.7643 Wdg=1 Bus=960 Conn=delta kV=12 kVA=500 tap=1 %R=0.52723 Wdg=2 Bus=ENDURANCE_HALL_2 Conn=wye kV=0.48 kVA=500 tap=1 %R=0.52723
New Transformer.XFMR_224 Phases=3 Windings=2 XHL=5.3041 Wdg=1 Bus=2694 Conn=delta kV=12 kVA=750 tap=1 %R=0.38617 Wdg=2 Bus=SVERDRUP_HALL_1 Conn=wye kV=0.208 kVA=750 tap=1 %R=0.38617
New Transformer.XFMR_225 Phases=3 Windings=2 XHL=5.5416 Wdg=1 Bus=2695 Conn=delta kV=12 kVA=750 tap=1 %R=0.40347 Wdg=2 Bus=SVERDRUP_HALL_2 Conn=wye kV=0.208 kVA=750 tap=1 %R=0.40347
New Transformer.XFMR_71 Phases=3 Windings=2 XHL=5.5416 Wdg=1 Bus=2698 Conn=delta kV=12 kVA=750 tap=1 %R=0.40347 Wdg=2 Bus=OLD_RITTER_HALL Conn=wye kV=0.208 kVA=750 tap=1 %R=0.40347
New Transformer.XFMR_349 Phases=3 Windings=2 XHL=4.92 Wdg=1 Bus=2812 Conn=delta kV=12 kVA=500 tap=1 %R=0.45 Wdg=2 Bus=SEAWEED_CANYON Conn=wye kV=0.208 kVA=500 tap=1 %R=0.45
New Transformer.XFMR_223 Phases=3 Windings=2 XHL=5.7039 Wdg=1 Bus=962 Conn=delta kV=12 kVA=750 tap=1 %R=0.52565 Wdg=2 Bus=BIRCH_AQUAR Conn=wye kV=0.48 kVA=750 tap=1 %R=0.52565
New Transformer.XFMR_267 Phases=3 Windings=2 XHL=5.6625 Wdg=1 Bus=2703 Conn=delta kV=12 kVA=1500 tap=1 %R=0.36756 Wdg=2 Bus=OARF Conn=wye kV=0.48 kVA=1500 tap=1 %R=0.36756
New Transformer.XFMR_126 Phases=3 Windings=2 XHL=8.4212 Wdg=1 Bus=2710 Conn=delta kV=12 kVA=750 tap=1 %R=0.61312 Wdg=2 Bus=NIERBURG_HALL Conn=wye kV=0.48 kVA=750 tap=1 %R=0.61312
New Transformer.XFMR_222 Phases=3 Windings=2 XHL=5.5676 Wdg=1 Bus=2746 Conn=delta kV=12 kVA=500 tap=1 %R=0.50923 Wdg=2 Bus=IGPP_II Conn=wye kV=0.208 kVA=500 tap=1 %R=0.50923
New Transformer.XFMR_58 Phases=3 Windings=2 XHL=6.0004 Wdg=1 Bus=3040 Conn=delta kV=12 kVA=500 tap=1 %R=0.54882 Wdg=2 Bus=NORPAX Conn=wye kV=0.48 kVA=500 tap=1 %R=0.54882
New Transformer.XFMR_HUBBS_HALL Phases=3 Windings=2 XHL=6.253 Wdg=1 Bus=2747 Conn=delta kV=12 kVA=2000 tap=1 %R=0.38396 Wdg=2 Bus=HUBBS_HALL Conn=wye kV=0.48 kVA=2000 tap=1 %R=0.38396
New Transformer.XFMR_190 Phases=3 Windings=2 XHL=5.2942 Wdg=1 Bus=2750 Conn=delta kV=12 kVA=750 tap=1 %R=0.38545 Wdg=2 Bus=SIO_LIBRARY Conn=wye kV=0.48 kVA=750 tap=1 %R=0.38545
New Transformer.XFMR_203 Phases=3 Windings=2 XHL=5.8384 Wdg=1 Bus=2743 Conn=delta kV=12 kVA=750 tap=1 %R=0.42508 Wdg=2 Bus=IGPP Conn=wye kV=0.48 kVA=750 tap=1 %R=0.42508
New Transformer.XFMR_331 Phases=3 Windings=2 XHL=5.6742 Wdg=1 Bus=963 Conn=delta kV=12 kVA=1000 tap=1 %R=0.39889 Wdg=2 Bus=PHARMACY_BLDG_EM_SUB Conn=wye kV=0.48 kVA=1000 tap=1 %R=0.39889
New Transformer.XFMR_HOPKINS_PARK Phases=3 Windings=2 XHL=5.69 Wdg=1 Bus=3170 Conn=delta kV=12.47 kVA=1000 tap=1 %R=0.4 Wdg=2 Bus=HOPKINS_PARKING Conn=wye kV=0.48 kVA=1000 tap=1 %R=0.4
New Transformer.XFMR_US9 Phases=3 Windings=2 XHL=5.8461 Wdg=1 Bus=964 Conn=delta kV=12 kVA=2000 tap=1 %R=0.35897 Wdg=2 Bus=WC9 Conn=wye kV=4.16 kVA=2000 tap=1 %R=0.35897
New Transformer.XFMR_378 Phases=3 Windings=2 XHL=5.7 Wdg=1 Bus=954 Conn=delta kV=12 kVA=2000 tap=1 %R=0.35 Wdg=2 Bus=HEALTH_SCI_APT_1 Conn=wye kV=0.48 kVA=2000 tap=1 %R=0.35
New Transformer.XFMR_379 Phases=3 Windings=2 XHL=5.7 Wdg=1 Bus=965 Conn=delta kV=12 kVA=2000 tap=1 %R=0.35 Wdg=2 Bus=HEALTH_SCI_APT_2 Conn=wye kV=0.48 kVA=2000 tap=1 %R=0.35
New Transformer.XFMR_358 Phases=3 Windings=2 XHL=5.7866 Wdg=1 Bus=182 Conn=delta kV=12 kVA=2500 tap=1 %R=0.35501 Wdg=2 Bus=CPB Conn=wye kV=0.48 kVA=2500 tap=1 %R=0.35501
New Transformer.XFMR_208 Phases=3 Windings=2 XHL=4.92 Wdg=1 Bus=183 Conn=delta kV=12 kVA=500 tap=1 %R=0.45 Wdg=2 Bus=L_XFMR208 Conn=wye kV=0.48 kVA=500 tap=1 %R=0.45
New Transformer.XFMR_377 Phases=3 Windings=2 XHL=5.4692 Wdg=1 Bus=233 Conn=delta kV=12 kVA=500 tap=1 %R=0.50023 Wdg=2 Bus=RAD Conn=wye kV=0.48 kVA=500 tap=1 %R=0.50023
New Transformer.XFMR_375 Phases=3 Windings=2 XHL=5.7517 Wdg=1 Bus=237 Conn=delta kV=12 kVA=1500 tap=1 %R=0.37336 Wdg=2 Bus=CVC_2 Conn=wye kV=0.48 kVA=1500 tap=1 %R=0.37336
New Transformer.XFMR_376 Phases=3 Windings=2 XHL=5.6724 Wdg=1 Bus=239 Conn=delta kV=12 kVA=1500 tap=1 %R=0.36821 Wdg=2 Bus=CVC_1 Conn=wye kV=0.48 kVA=1500 tap=1 %R=0.36821
New Transformer.XFMR_359 Phases=3 Windings=2 XHL=5.8681 Wdg=1 Bus=114 Conn=delta kV=12 kVA=750 tap=1 %R=0.42724 Wdg=2 Bus=RAD_ONCOLOGY Conn=wye kV=0.208 kVA=750 tap=1 %R=0.42724
New Transformer.XFMR_338 Phases=3 Windings=2 XHL=5.1414 Wdg=1 Bus=791 Conn=delta kV=12 kVA=2000 tap=1 %R=0.3157 Wdg=2 Bus=CDP_2 Conn=wye kV=0.48 kVA=2000 tap=1 %R=0.3157
New Transformer.XFMR_T_2 Phases=3 Windings=2 XHL=5.6228 Wdg=1 Bus=792 Conn=delta kV=12 kVA=1500 tap=1 %R=0.36499 Wdg=2 Bus=MDS Conn=wye kV=0.48 kVA=1500 tap=1 %R=0.36499
New Transformer.XFMR_T_3 Phases=3 Windings=2 XHL=5.7418 Wdg=1 Bus=793 Conn=delta kV=12 kVA=1500 tap=1 %R=0.37272 Wdg=2 Bus=CDP Conn=wye kV=0.48 kVA=1500 tap=1 %R=0.37272
New Transformer.XFMR_367 Phases=3 Windings=2 XHL=5.5781 Wdg=1 Bus=970 Conn=delta kV=12 kVA=2000 tap=1 %R=0.34252 Wdg=2 Bus=LXFMR_367 Conn=wye kV=0.48 kVA=2000 tap=1 %R=0.34252
New Transformer.XFMR_368 Phases=3 Windings=2 XHL=5.6079 Wdg=1 Bus=973 Conn=delta kV=12 kVA=2000 tap=1 %R=0.34435 Wdg=2 Bus=LXFMR_368 Conn=wye kV=0.48 kVA=2000 tap=1 %R=0.34435
New Transformer.XFMR_369 Phases=3 Windings=2 XHL=5.6079 Wdg=1 Bus=976 Conn=delta kV=12 kVA=2000 tap=1 %R=0.34435 Wdg=2 Bus=LXFMR_369 Conn=wye kV=0.48 kVA=2000 tap=1 %R=0.34435
New Transformer.XFMR_370 Phases=3 Windings=2 XHL=5.5979 Wdg=1 Bus=980 Conn=delta kV=12 kVA=2000 tap=1 %R=0.34374 Wdg=2 Bus=LXFMR_370 Conn=wye kV=0.48 kVA=2000 tap=1 %R=0.34374
New Transformer.XFMR_341 Phases=3 Windings=2 XHL=5.8013 Wdg=1 Bus=636 Conn=delta kV=12 kVA=1500 tap=1 %R=0.37657 Wdg=2 Bus=STUDENT_SERVICE Conn=wye kV=0.48 kVA=1500 tap=1 %R=0.37657
New Transformer.XFMR_355 Phases=3 Windings=2 XHL=5.69 Wdg=1 Bus=1021 Conn=delta kV=12 kVA=1000 tap=1 %R=0.4 Wdg=2 Bus=MUSIC_BUILD. Conn=wye kV=0.48 kVA=1000 tap=1 %R=0.4
New Transformer.XFMR_196 Phases=3 Windings=2 XHL=5.6544 Wdg=1 Bus=1714 Conn=delta kV=12 kVA=1000 tap=1 %R=0.39749 Wdg=2 Bus=BLDG_2C_2 Conn=wye kV=0.48 kVA=1000 tap=1 %R=0.39749
New Transformer.XFMR_302 Phases=3 Windings=2 XHL=5.69 Wdg=1 Bus=639 Conn=delta kV=12 kVA=1000 tap=1 %R=0.4 Wdg=2 Bus=L_XFMR302 Conn=wye kV=0.48 kVA=1000 tap=1 %R=0.4
New Transformer.XFMR_301 Phases=3 Windings=2 XHL=5.69 Wdg=1 Bus=640 Conn=delta kV=12 kVA=1000 tap=1 %R=0.4 Wdg=2 Bus=L_XFMR301 Conn=wye kV=0.48 kVA=1000 tap=1 %R=0.4
New Transformer.XFMR_300 Phases=3 Windings=2 XHL=5.69 Wdg=1 Bus=641 Conn=delta kV=12 kVA=1000 tap=1 %R=0.4 Wdg=2 Bus=L_XFMR300 Conn=wye kV=0.48 kVA=1000 tap=1 %R=0.4
New Transformer.XFMR_361 Phases=3 Windings=2 XHL=5.5265 Wdg=1 Bus=3544 Conn=delta kV=12 kVA=1000 tap=1 %R=0.48221 Wdg=2 Bus=NC_HOUSING1 Conn=wye kV=0.48 kVA=1000 tap=1 %R=0.48221
New Transformer.XFMR_362 Phases=3 Windings=2 XHL=5.3696 Wdg=1 Bus=3545 Conn=delta kV=12 kVA=750 tap=1 %R=0.49484 Wdg=2 Bus=NC_HOUSING2 Conn=wye kV=0.48 kVA=750 tap=1 %R=0.49484
New Transformer.XFMR_363 Phases=3 Windings=2 XHL=5.3892 Wdg=1 Bus=1708 Conn=delta kV=12 kVA=750 tap=1 %R=0.49666 Wdg=2 Bus=NC_HOUSING3 Conn=wye kV=0.48 kVA=750 tap=1 %R=0.49666
New Transformer.XFMR_364 Phases=3 Windings=2 XHL=5.7 Wdg=1 Bus=3578 Conn=delta kV=12 kVA=1500 tap=1 %R=0.37 Wdg=2 Bus=MS1 Conn=wye kV=0.48 kVA=1500 tap=1 %R=0.37
New Transformer.XFMR_365 Phases=3 Windings=2 XHL=5.7 Wdg=1 Bus=3579 Conn=delta kV=12 kVA=1500 tap=1 %R=0.37 Wdg=2 Bus=MS4 Conn=wye kV=0.48 kVA=1500 tap=1 %R=0.37
New Transformer.XFMR_366 Phases=3 Windings=2 XHL=5.69 Wdg=1 Bus=3580 Conn=delta kV=12 kVA=1000 tap=1 %R=0.4 Wdg=2 Bus=MS5 Conn=wye kV=0.48 kVA=1000 tap=1 %R=0.4
New Transformer.XFMR_292 Phases=3 Windings=2 XHL=5.7 Wdg=1 Bus=1065 Conn=delta kV=12 kVA=750 tap=1 %R=0.415 Wdg=2 Bus=UNEX Conn=wye kV=0.208 kVA=750 tap=1 %R=0.415
New Transformer.XFMR_MUIRAPT Phases=3 Windings=2 XHL=5.7 Wdg=1 Bus=1709 Conn=delta kV=12 kVA=750 tap=1 %R=0.415 Wdg=2 Bus=MUIR_APT Conn=wye kV=0.48 kVA=750 tap=1 %R=0.415
New Transformer.XFMR_REVELLE_H Phases=3 Windings=2 XHL=5.6702 Wdg=1 Bus=3041 Conn=delta kV=12 kVA=750 tap=1 %R=0.41283 Wdg=2 Bus=REVELLE_H Conn=wye kV=0.48 kVA=750 tap=1 %R=0.41283
New Transformer.XFMR_187 Phases=3 Windings=2 XHL=5.7 Wdg=1 Bus=3718 Conn=delta kV=12 kVA=750 tap=1 %R=0.415 Wdg=2 Bus=MANDELL_WEISS Conn=wye kV=0.208 kVA=750 tap=1 %R=0.415
New Transformer.XFMR_320 Phases=3 Windings=2 XHL=5.7 Wdg=1 Bus=3719 Conn=delta kV=12 kVA=1500 tap=1 %R=0.37 Wdg=2 Bus=BLACK_BOX Conn=wye kV=0.48 kVA=1500 tap=1 %R=0.37
New Generator.GEN_DIESEL_1 bus1=GEN_DIESEL_1 Kv=12.47 Kw=1000 Model=1 Kvar=0 Maxkvar=500 Minkvar=-500 kVA=1250 Xd=9 Xdp=15 Xdpp=100
New Generator.GEN_DIESEL_2 bus1=GEN_DIESEL_2 Kv=12.47 Kw=1000 Model=1 Kvar=0 Maxkvar=500 Minkvar=-500 kVA=1250 Xd=9 Xdp=15 Xdpp=100
New Generator.GEN_EM_DIESEL bus1=GEN_EM_DIESEL Kv=12.47 Kw=100 Model=1 Kvar=0 Maxkvar=500 Minkvar=-500 kVA=1500 Xd=9 Xdp=15 Xdpp=100
...